New Line.8684943 bus1=SWI288996.1.2.3 bus2=SWI406465.1.2.3 length=51.604272 units=m phases=3 phases=3 LineCode=UA750Z_UG_PRIMARY_3_2Cond NormAmps=485
New Line.27398360 bus1=SWI406465.1.2.3 bus2=JNC318939.1.2.3 length=15.141831 units=m phases=3 phases=3 LineCode=UA750Z_UG_PRIMARY_3_2Cond NormAmps=485
New Line.8684944 bus1=JNC318939.1.2.3 bus2=JNC318455.1.2.3 length=124.25319 units=m phases=3 phases=3 LineCode=UA750Z_UG_PRIMARY_3_2Cond NormAmps=485
New Line.8684845 bus1=JNC318455.1.2.3 bus2=JNC317981.1.2.3 length=171.257956 units=m phases=3 phases=3 LineCode=UA750Z_UG_PRIMARY_3_2Cond NormAmps=485
New Line.8684846 bus1=JNC317981.1.2.3 bus2=JNC314434.1.2.3 length=487.629854 units=m phases=3 phases=3 LineCode=UA750Z_UG_PRIMARY_3_2Cond NormAmps=485
New Line.8684847 bus1=JNC314434.1.2.3 bus2=JNC311033.1.2.3 length=459.285745 units=m phases=3 phases=3 LineCode=UA750Z_UG_PRIMARY_3_2Cond NormAmps=485
New Line.8684848 bus1=JNC311033.1.2.3 bus2=JNC309270.1.2.3 length=347.268391 units=m phases=3 phases=3 LineCode=UA750Z_UG_PRIMARY_3_2Cond NormAmps=485
New Line.8684849 bus1=JNC309270.1.2.3 bus2=JNC308439.1.2.3 length=169.929654 units=m phases=3 phases=3 LineCode=UA750Z_UG_PRIMARY_3_2Cond NormAmps=485
New Line.8683790 bus1=JNC308439.1.2.3 bus2=JNC306354.1.2.3 length=292.690918 units=m phases=3 phases=3 LineCode=UA750Z_UG_PRIMARY_3_2Cond NormAmps=485
New Line.8683831 bus1=JNC306354.1.2.3 bus2=JNC303220.1.2.3 length=288.606053 units=m phases=3 phases=3 LineCode=UA750Z_UG_PRIMARY_3_2Cond NormAmps=485
New Line.8683858 bus1=JNC303220.1.2.3 bus2=JNC303703.1.2.3 length=69.477637 units=m phases=3 phases=3 LineCode=UA750T_UG_PRIMARY_3_2Cond NormAmps=485
Edit Line.8683837 bus1=JNC303703.3.0 bus2=CSW85095.3.0 length=0.543725 units=m phases=1 phases=1 LineCode=UA750T_UG_PRIMARY_1_1Cond NormAmps=485
New Line.5406008 bus1=CSW85095.3.0 bus2=JNC303688.3.0 length=0.304897 units=m phases=1 phases=1 LineCode=BUSWORK_1_1Cond NormAmps=640
New Line.5406002 bus1=JNC303688.3.0 bus2=JNC303680.3.0 length=0.305087 units=m phases=1 phases=1 LineCode=BUSWORK_1_1Cond NormAmps=640
Edit Line.5406009 bus1=JNC303680.3.0 bus2=CSW181315.3.0 length=0.609347 units=m phases=1 phases=1 LineCode=BUSWORK_1_1Cond NormAmps=640
New Line.19688735 bus1=CSW181315.3.0 bus2=FLT13992.3.0 length=0.231528 units=m phases=1 phases=1 LineCode=UA750Z_UG_PRIMARY_1_1Cond NormAmps=485
New Line.8683835 bus1=FLT13992.3.0 bus2=JNC303655.3.0 length=0.306506 units=m phases=1 phases=1 LineCode=UA750Z_UG_PRIMARY_1_1Cond NormAmps=485
Edit Line.5406010 bus1=JNC303680.3.0 bus2=CSW181308.3.0 length=0.304769 units=m phases=1 phases=1 LineCode=BUSWORK_1_1Cond NormAmps=640
New Line.19688742 bus1=CSW181308.3.0 bus2=FLT13998.3.0 length=0.267704 units=m phases=1 phases=1 LineCode=UA750Z_UG_PRIMARY_1_1Cond NormAmps=485
New Line.8683836 bus1=FLT13998.3.0 bus2=JNC303682.3.0 length=0.291993 units=m phases=1 phases=1 LineCode=UA750Z_UG_PRIMARY_1_1Cond NormAmps=485
Edit Line.5406007 bus1=JNC303688.3.0 bus2=CSW85100.3.0 length=0.609538 units=m phases=1 phases=1 LineCode=BUSWORK_1_1Cond NormAmps=640
New Line.8683843 bus1=CSW85100.3.0 bus2=JNC303679.3.0 length=0.54156 units=m phases=1 phases=1 LineCode=UA1/0T_UG_PRIMARY_1_1Cond NormAmps=150
Edit Line.8683839 bus1=JNC303703.1.0 bus2=CSW85097.1.0 length=0.543715 units=m phases=1 phases=1 LineCode=UA750T_UG_PRIMARY_1_1Cond NormAmps=485
New Line.5406004 bus1=CSW85097.1.0 bus2=JNC303696.1.0 length=0.609538 units=m phases=1 phases=1 LineCode=BUSWORK_1_1Cond NormAmps=640
New Line.5406000 bus1=JNC303696.1.0 bus2=JNC303659.1.0 length=1.524099 units=m phases=1 phases=1 LineCode=BUSWORK_1_1Cond NormAmps=640
Edit Line.5406013 bus1=JNC303659.1.0 bus2=CSW181321.1.0 length=0.304579 units=m phases=1 phases=1 LineCode=BUSWORK_1_1Cond NormAmps=640
New Line.19688740 bus1=CSW181321.1.0 bus2=FLT13996.1.0 length=0.232278 units=m phases=1 phases=1 LineCode=UA750Z_UG_PRIMARY_1_1Cond NormAmps=485
New Line.8683840 bus1=FLT13996.1.0 bus2=JNC303655.1.0 length=0.305744 units=m phases=1 phases=1 LineCode=UA750Z_UG_PRIMARY_1_1Cond NormAmps=485
Edit Line.5406014 bus1=JNC303659.1.0 bus2=CSW181320.1.0 length=0.609855 units=m phases=1 phases=1 LineCode=BUSWORK_1_1Cond NormAmps=640
New Line.8683838 bus1=CSW181320.1.0 bus2=FLT12422.1.0 length=0.278051 units=m phases=1 phases=1 LineCode=UA750Z_UG_PRIMARY_1_1Cond NormAmps=485
New Line.19686358 bus1=FLT12422.1.0 bus2=JNC303682.1.0 length=0.271261 units=m phases=1 phases=1 LineCode=UA750Z_UG_PRIMARY_1_1Cond NormAmps=485
Edit Line.5406003 bus1=JNC303696.1.0 bus2=CSW85098.1.0 length=0.304579 units=m phases=1 phases=1 LineCode=BUSWORK_1_1Cond NormAmps=640
New Line.8683842 bus1=CSW85098.1.0 bus2=JNC303679.1.0 length=0.541938 units=m phases=1 phases=1 LineCode=UA1/0T_UG_PRIMARY_1_1Cond NormAmps=150
Edit Line.8683833 bus1=JNC303703.2.0 bus2=CSW85094.2.0 length=0.450263 units=m phases=1 phases=1 LineCode=UA750T_UG_PRIMARY_1_1Cond NormAmps=485
New Line.5406006 bus1=CSW85094.2.0 bus2=JNC303691.2.0 length=0.45674 units=m phases=1 phases=1 LineCode=BUSWORK_1_1Cond NormAmps=640
New Line.5406001 bus1=JNC303691.2.0 bus2=JNC303672.2.0 length=0.913926 units=m phases=1 phases=1 LineCode=BUSWORK_1_1Cond NormAmps=640
Edit Line.5406011 bus1=JNC303672.2.0 bus2=CSW181316.2.0 length=0.457376 units=m phases=1 phases=1 LineCode=BUSWORK_1_1Cond NormAmps=640
New Line.19687841 bus1=CSW181316.2.0 bus2=FLT12823.2.0 length=0.186011 units=m phases=1 phases=1 LineCode=UA750Z_UG_PRIMARY_1_1Cond NormAmps=485
New Line.8683834 bus1=FLT12823.2.0 bus2=JNC303655.2.0 length=0.257266 units=m phases=1 phases=1 LineCode=UA750Z_UG_PRIMARY_1_1Cond NormAmps=485
Edit Line.5406012 bus1=JNC303672.2.0 bus2=CSW181319.2.0 length=0.457058 units=m phases=1 phases=1 LineCode=BUSWORK_1_1Cond NormAmps=640
New Line.19688748 bus1=CSW181319.2.0 bus2=FLT14004.2.0 length=0.23133 units=m phases=1 phases=1 LineCode=UA750Z_UG_PRIMARY_1_1Cond NormAmps=485
New Line.8683832 bus1=FLT14004.2.0 bus2=JNC303682.2.0 length=0.231743 units=m phases=1 phases=1 LineCode=UA750Z_UG_PRIMARY_1_1Cond NormAmps=485
Edit Line.5406005 bus1=JNC303691.2.0 bus2=CSW85099.2.0 length=0.457504 units=m phases=1 phases=1 LineCode=BUSWORK_1_1Cond NormAmps=640
New Line.8683841 bus1=CSW85099.2.0 bus2=JNC303679.2.0 length=0.447786 units=m phases=1 phases=1 LineCode=UA1/0T_UG_PRIMARY_1_1Cond NormAmps=150
Edit Line.8683860 bus1=JNC303679.1.2.3 bus2=CSW943914.1.2.3 length=7.72517 units=m phases=3 phases=3 LineCode=UA1/0T_UG_PRIMARY_3_1Cond NormAmps=150
New Line.27810645 bus1=CSW943914.1.2.3 bus2=CAP1283.1.2.3 length=1.523971 units=m phases=3 phases=3 LineCode=UA1/0T_UG_PRIMARY_3_1Cond NormAmps=150
New Line.8683861 bus1=JNC303655.1.2.3 bus2=JNC303738.1.2.3 length=16.581354 units=m phases=3 phases=3 LineCode=UA750Z_UG_PRIMARY_3_1Cond NormAmps=485
Edit Line.8683844 bus1=JNC303738.2.0 bus2=CSW181326.2.0 length=0.44696 units=m phases=1 phases=1 LineCode=UA750Z_UG_PRIMARY_1_1Cond NormAmps=485
New Line.5406027 bus1=CSW181326.2.0 bus2=JNC303731.2.0 length=0.457376 units=m phases=1 phases=1 LineCode=BUSWORK_1_1Cond NormAmps=640
New Line.5406016 bus1=JNC303731.2.0 bus2=JNC303741.2.0 length=0.913862 units=m phases=1 phases=1 LineCode=BUSWORK_1_1Cond NormAmps=640
Edit Line.5406021 bus1=JNC303741.2.0 bus2=CSW181325.2.0 length=0.456931 units=m phases=1 phases=1 LineCode=BUSWORK_1_1Cond NormAmps=640
New Line.19688745 bus1=CSW181325.2.0 bus2=FLT14001.2.0 length=0.203761 units=m phases=1 phases=1 LineCode=UA750Z_UG_PRIMARY_1_1Cond NormAmps=485
New Line.8683845 bus1=FLT14001.2.0 bus2=JNC303745.2.0 length=0.243707 units=m phases=1 phases=1 LineCode=UA750Z_UG_PRIMARY_1_1Cond NormAmps=485
New Line.5406020 bus1=JNC303741.2.0 bus2=JNC303739.2.0 length=0.457058 units=m phases=1 phases=1 LineCode=BUSWORK_1_1Cond NormAmps=640
New Line.5406026 bus1=JNC303731.2.0 bus2=JNC303727.2.0 length=0.456613 units=m phases=1 phases=1 LineCode=BUSWORK_1_1Cond NormAmps=640
Edit Line.8683846 bus1=JNC303738.1.0 bus2=CSW181329.1.0 length=0.541317 units=m phases=1 phases=1 LineCode=UA750Z_UG_PRIMARY_1_1Cond NormAmps=485
New Line.5406029 bus1=CSW181329.1.0 bus2=JNC303724.1.0 length=0.609538 units=m phases=1 phases=1 LineCode=BUSWORK_1_1Cond NormAmps=640
New Line.5406015 bus1=JNC303724.1.0 bus2=JNC303743.1.0 length=1.52378 units=m phases=1 phases=1 LineCode=BUSWORK_1_1Cond NormAmps=640
Edit Line.5406019 bus1=JNC303743.1.0 bus2=CSW181330.1.0 length=0.609284 units=m phases=1 phases=1 LineCode=BUSWORK_1_1Cond NormAmps=640
New Line.19686361 bus1=CSW181330.1.0 bus2=FLT12425.1.0 length=0.251851 units=m phases=1 phases=1 LineCode=UA750Z_UG_PRIMARY_1_1Cond NormAmps=485
New Line.8683847 bus1=FLT12425.1.0 bus2=JNC303745.1.0 length=0.289688 units=m phases=1 phases=1 LineCode=UA750Z_UG_PRIMARY_1_1Cond NormAmps=485
New Line.5406018 bus1=JNC303743.1.0 bus2=JNC303742.1.0 length=0.303943 units=m phases=1 phases=1 LineCode=BUSWORK_1_1Cond NormAmps=640
New Line.5406028 bus1=JNC303724.1.0 bus2=JNC303723.1.0 length=0.304642 units=m phases=1 phases=1 LineCode=BUSWORK_1_1Cond NormAmps=640
Edit Line.8683849 bus1=JNC303738.3.0 bus2=CSW181324.3.0 length=0.541191 units=m phases=1 phases=1 LineCode=UA750Z_UG_PRIMARY_1_1Cond NormAmps=485
New Line.5406025 bus1=CSW181324.3.0 bus2=JNC303737.3.0 length=0.304769 units=m phases=1 phases=1 LineCode=BUSWORK_1_1Cond NormAmps=640
New Line.5406017 bus1=JNC303737.3.0 bus2=JNC303740.3.0 length=0.304642 units=m phases=1 phases=1 LineCode=BUSWORK_1_1Cond NormAmps=640
Edit Line.5406023 bus1=JNC303740.3.0 bus2=CSW181323.3.0 length=0.304959 units=m phases=1 phases=1 LineCode=BUSWORK_1_1Cond NormAmps=640
New Line.19686521 bus1=CSW181323.3.0 bus2=FLT11532.3.0 length=0.247744 units=m phases=1 phases=1 LineCode=UA750Z_UG_PRIMARY_1_1Cond NormAmps=485
New Line.8683848 bus1=FLT11532.3.0 bus2=JNC303745.3.0 length=0.293392 units=m phases=1 phases=1 LineCode=UA750Z_UG_PRIMARY_1_1Cond NormAmps=485
New Line.5406022 bus1=JNC303740.3.0 bus2=JNC303735.3.0 length=0.609093 units=m phases=1 phases=1 LineCode=BUSWORK_1_1Cond NormAmps=640
New Line.5406024 bus1=JNC303737.3.0 bus2=JNC303732.3.0 length=0.609411 units=m phases=1 phases=1 LineCode=BUSWORK_1_1Cond NormAmps=640
New Line.8683856 bus1=JNC303745.1.2.3 bus2=JNC303799.1.2.3 length=11.911824 units=m phases=3 phases=3 LineCode=UA750Z_UG_PRIMARY_3_1Cond NormAmps=485
Edit Line.8683851 bus1=JNC303799.2.0 bus2=CSW181333.2.0 length=0.455993 units=m phases=1 phases=1 LineCode=UA750Z_UG_PRIMARY_1_1Cond NormAmps=485
New Line.5406036 bus1=CSW181333.2.0 bus2=JNC303786.2.0 length=0.456819 units=m phases=1 phases=1 LineCode=BUSWORK_1_1Cond NormAmps=640
New Line.5406031 bus1=JNC303786.2.0 bus2=JNC303768.2.0 length=0.914652 units=m phases=1 phases=1 LineCode=BUSWORK_1_1Cond NormAmps=640
Edit Line.5406042 bus1=JNC303768.2.0 bus2=CSW181334.2.0 length=0.457007 units=m phases=1 phases=1 LineCode=BUSWORK_1_1Cond NormAmps=640
New Line.8683850 bus1=CSW181334.2.0 bus2=FLT12825.2.0 length=0.231503 units=m phases=1 phases=1 LineCode=UA750Z_UG_PRIMARY_1_1Cond NormAmps=485
New Line.19687843 bus1=FLT12825.2.0 bus2=JNC303777.2.0 length=0.218389 units=m phases=1 phases=1 LineCode=UA750Z_UG_PRIMARY_1_1Cond NormAmps=485
Edit Line.5406041 bus1=JNC303768.2.0 bus2=CSW83804.2.0 length=0.456951 units=m phases=1 phases=1 LineCode=BUSWORK_1_1Cond NormAmps=640
New Line.8687270 bus1=CSW83804.2.0 bus2=JNC303762.2.0 length=0.44798 units=m phases=1 phases=1 LineCode=UA1/0T_UG_PRIMARY_1_1Cond NormAmps=150
New Line.5406035 bus1=JNC303786.2.0 bus2=JNC303780.2.0 length=0.457138 units=m phases=1 phases=1 LineCode=BUSWORK_1_1Cond NormAmps=640
Edit Line.8683853 bus1=JNC303799.1.0 bus2=CSW181337.1.0 length=0.548584 units=m phases=1 phases=1 LineCode=UA750Z_UG_PRIMARY_1_1Cond NormAmps=485
New Line.5406034 bus1=CSW181337.1.0 bus2=JNC303793.1.0 length=0.609368 units=m phases=1 phases=1 LineCode=BUSWORK_1_1Cond NormAmps=640
New Line.5406030 bus1=JNC303793.1.0 bus2=JNC303763.1.0 length=1.524339 units=m phases=1 phases=1 LineCode=BUSWORK_1_1Cond NormAmps=640
Edit Line.5406044 bus1=JNC303763.1.0 bus2=CSW181336.1.0 length=0.609368 units=m phases=1 phases=1 LineCode=BUSWORK_1_1Cond NormAmps=640
New Line.8683852 bus1=CSW181336.1.0 bus2=FLT14006.1.0 length=0.283456 units=m phases=1 phases=1 LineCode=UA750Z_UG_PRIMARY_1_1Cond NormAmps=485
New Line.19688750 bus1=FLT14006.1.0 bus2=JNC303777.1.0 length=0.260681 units=m phases=1 phases=1 LineCode=UA750Z_UG_PRIMARY_1_1Cond NormAmps=485
Edit Line.5406043 bus1=JNC303763.1.0 bus2=CSW83806.1.0 length=0.304459 units=m phases=1 phases=1 LineCode=BUSWORK_1_1Cond NormAmps=640
New Line.8687490 bus1=CSW83806.1.0 bus2=JNC303762.1.0 length=0.541001 units=m phases=1 phases=1 LineCode=UA1/0T_UG_PRIMARY_1_1Cond NormAmps=150
New Line.5406033 bus1=JNC303793.1.0 bus2=JNC303787.1.0 length=0.304778 units=m phases=1 phases=1 LineCode=BUSWORK_1_1Cond NormAmps=640
Edit Line.8683855 bus1=JNC303799.3.0 bus2=CSW181331.3.0 length=0.548377 units=m phases=1 phases=1 LineCode=UA750Z_UG_PRIMARY_1_1Cond NormAmps=485
New Line.5406038 bus1=CSW181331.3.0 bus2=JNC303781.3.0 length=0.304909 units=m phases=1 phases=1 LineCode=BUSWORK_1_1Cond NormAmps=640
New Line.5406032 bus1=JNC303781.3.0 bus2=JNC303774.3.0 length=0.305097 units=m phases=1 phases=1 LineCode=BUSWORK_1_1Cond NormAmps=640
Edit Line.5406040 bus1=JNC303774.3.0 bus2=CSW181332.3.0 length=0.304966 units=m phases=1 phases=1 LineCode=BUSWORK_1_1Cond NormAmps=640
New Line.8683854 bus1=CSW181332.3.0 bus2=FLT7250.3.0 length=0.279388 units=m phases=1 phases=1 LineCode=UA750Z_UG_PRIMARY_1_1Cond NormAmps=485
New Line.19684571 bus1=FLT7250.3.0 bus2=JNC303777.3.0 length=0.264177 units=m phases=1 phases=1 LineCode=UA750Z_UG_PRIMARY_1_1Cond NormAmps=485
Edit Line.5406039 bus1=JNC303774.3.0 bus2=CSW83805.3.0 length=0.609049 units=m phases=1 phases=1 LineCode=BUSWORK_1_1Cond NormAmps=640
New Line.8687491 bus1=CSW83805.3.0 bus2=JNC303762.3.0 length=0.542362 units=m phases=1 phases=1 LineCode=UA1/0T_UG_PRIMARY_1_1Cond NormAmps=150
New Line.5406037 bus1=JNC303781.3.0 bus2=JNC303773.3.0 length=0.609049 units=m phases=1 phases=1 LineCode=BUSWORK_1_1Cond NormAmps=640
New Line.8687492 bus1=JNC303762.1.2.3 bus2=JNC303230.1.2.3 length=102.463305 units=m phases=3 phases=3 LineCode=UA1/0T_UG_PRIMARY_3_1Cond NormAmps=150
Edit Line.8687493 bus1=JNC303230.1.2.3 bus2=CSW943897.1.2.3 length=131.576873 units=m phases=3 phases=3 LineCode=UA1/0T_UG_PRIMARY_3_1Cond NormAmps=150
New Line.27810577 bus1=CSW943897.1.2.3 bus2=XFR250584.1.2.3 length=1.523988 units=m phases=3 phases=3 LineCode=UA1/0T_UG_PRIMARY_3_1Cond NormAmps=150
New Line.9960191 bus1=XFR250584_EXTNODE.1.2.3 bus2=SEP851284.1.2.3 length=3.226606 units=m phases=3 phases=3 LineCode=UA4/0A_UG_SECONDARY_3_1Cond NormAmps=260
New Line.8683859 bus1=JNC303682.1.2.3 bus2=JNC303233.1.2.3 length=70.313945 units=m phases=3 phases=3 LineCode=UA750Z_UG_PRIMARY_3_1Cond NormAmps=485
New Line.8683954 bus1=JNC303233.1.2.3 bus2=JNC300713.1.2.3 length=276.971308 units=m phases=3 phases=3 LineCode=UA750Z_UG_PRIMARY_3_1Cond NormAmps=485
Edit Line.8683946 bus1=JNC300713.2.0 bus2=CSW76097.2.0 length=0.457326 units=m phases=1 phases=1 LineCode=UA750Z_UG_PRIMARY_1_1Cond NormAmps=485
New Line.5406112 bus1=CSW76097.2.0 bus2=JNC300727.2.0 length=0.456956 units=m phases=1 phases=1 LineCode=BUSWORK_1_1Cond NormAmps=640
Edit Line.5406111 bus1=JNC300727.2.0 bus2=CSW76303.2.0 length=0.456956 units=m phases=1 phases=1 LineCode=BUSWORK_1_1Cond NormAmps=640
New Line.8685464 bus1=CSW76303.2.0 bus2=JNC300744.2.0 length=0.434739 units=m phases=1 phases=1 LineCode=UA1/0T_UG_PRIMARY_1_1Cond NormAmps=150
New Line.5406107 bus1=JNC300727.2.0 bus2=JNC300726.2.0 length=0.914652 units=m phases=1 phases=1 LineCode=BUSWORK_1_1Cond NormAmps=640
Edit Line.5406117 bus1=JNC300726.2.0 bus2=CSW76305.2.0 length=0.457327 units=m phases=1 phases=1 LineCode=BUSWORK_1_1Cond NormAmps=640
New Line.16084022 bus1=CSW76305.2.0 bus2=JNC301016.2.0 length=180.482951 units=m phases=1 phases=1 LineCode=UA1/0T_UG_PRIMARY_1_1Cond NormAmps=150
Edit Line.8688672 bus1=JNC301016.2.0 bus2=CSW943875.2.0 length=109.114806 units=m phases=1 phases=1 LineCode=UA1/0T_UG_PRIMARY_1_1Cond NormAmps=150
New Line.27810481 bus1=CSW943875.2.0 bus2=XFR163527.2.0 length=1.523963 units=m phases=1 phases=1 LineCode=UA1/0T_UG_PRIMARY_1_1Cond NormAmps=150
Edit Line.27810485 bus1=XFR163527.2.0 bus2=CSW943876.2.0 length=1.524033 units=m phases=1 phases=1 LineCode=UA1/0T_UG_PRIMARY_1_1Cond NormAmps=150
Edit Line.8688626 bus1=CSW943876.2.0 bus2=CSW943859.2.0 length=135.460074 units=m phases=1 phases=1 LineCode=UA1/0T_UG_PRIMARY_1_1Cond NormAmps=150
New Line.27810417 bus1=CSW943859.2.0 bus2=XFR163526.2.0 length=1.52398 units=m phases=1 phases=1 LineCode=UA1/0T_UG_PRIMARY_1_1Cond NormAmps=150
Edit Line.27810413 bus1=XFR163526.2.0 bus2=CSW943858.2.0 length=1.524015 units=m phases=1 phases=1 LineCode=UA1/0T_UG_PRIMARY_1_1Cond NormAmps=150
Edit Line.8688747 bus1=CSW943858.2.0 bus2=CSW943899.2.0 length=110.441215 units=m phases=1 phases=1 LineCode=UA1/0T_UG_PRIMARY_1_1Cond NormAmps=150
New Line.27810585 bus1=CSW943899.2.0 bus2=XFR163525.2.0 length=1.524009 units=m phases=1 phases=1 LineCode=UA1/0T_UG_PRIMARY_1_1Cond NormAmps=150
Edit Line.27810581 bus1=XFR163525.2.0 bus2=CSW943898.2.0 length=1.523979 units=m phases=1 phases=1 LineCode=UA1/0T_UG_PRIMARY_1_1Cond NormAmps=150
Edit Line.8688802 bus1=CSW943898.2.0 bus2=CSW943901.2.0 length=51.049275 units=m phases=1 phases=1 LineCode=UA1/0T_UG_PRIMARY_1_1Cond NormAmps=150
New Line.27810593 bus1=CSW943901.2.0 bus2=XFR163524.2.0 length=1.523959 units=m phases=1 phases=1 LineCode=UA1/0T_UG_PRIMARY_1_1Cond NormAmps=150
Edit Line.27810589 bus1=XFR163524.2.0 bus2=CSW943900.2.0 length=1.524036 units=m phases=1 phases=1 LineCode=UA1/0T_UG_PRIMARY_1_1Cond NormAmps=150
Edit Line.8688793 bus1=CSW943900.2.0 bus2=CSW943903.2.0 length=50.637589 units=m phases=1 phases=1 LineCode=UA1/0T_UG_PRIMARY_1_1Cond NormAmps=150
New Line.27810601 bus1=CSW943903.2.0 bus2=XFR163521.2.0 length=1.52403 units=m phases=1 phases=1 LineCode=UA1/0T_UG_PRIMARY_1_1Cond NormAmps=150
Edit Line.27810597 bus1=XFR163521.2.0 bus2=CSW943902.2.0 length=1.523973 units=m phases=1 phases=1 LineCode=UA1/0T_UG_PRIMARY_1_1Cond NormAmps=150
Edit Line.8688792 bus1=CSW943902.2.0 bus2=CSW943910.2.0 length=72.216857 units=m phases=1 phases=1 LineCode=UA1/0T_UG_PRIMARY_1_1Cond NormAmps=150
New Line.27810629 bus1=CSW943910.2.0 bus2=XFR163522.2.0 length=1.523968 units=m phases=1 phases=1 LineCode=UA1/0T_UG_PRIMARY_1_1Cond NormAmps=150
Edit Line.27810633 bus1=XFR163522.2.0 bus2=CSW943911.2.0 length=1.523954 units=m phases=1 phases=1 LineCode=UA1/0T_UG_PRIMARY_1_1Cond NormAmps=150
Edit Line.8688791 bus1=CSW943911.2.0 bus2=CSW943905.2.0 length=102.09292 units=m phases=1 phases=1 LineCode=UA1/0T_UG_PRIMARY_1_1Cond NormAmps=150
New Line.27810609 bus1=CSW943905.2.0 bus2=XFR163523.2.0 length=1.524044 units=m phases=1 phases=1 LineCode=UA1/0T_UG_PRIMARY_1_1Cond NormAmps=150
New Line.9967673 bus1=XFR163523_EXTNODE.2.0 bus2=JNC305612.2.0 length=9.296479 units=m phases=1 phases=1 LineCode=UA1/0A_UG_SECONDARY_1_1Cond NormAmps=150
New Line.9967674 bus1=JNC305612.2.0 bus2=JNC305613.2.0 length=0.914448 units=m phases=1 phases=1 LineCode=UA1/0A_UG_SECONDARY_1_1Cond NormAmps=150
New Line.9967667 bus1=XFR163523_EXTNODE.2.0 bus2=SEP481354.2.0 length=23.610231 units=m phases=1 phases=1 LineCode=UA1/0A_UG_SECONDARY_1_1Cond NormAmps=150
New Line.9967670 bus1=XFR163523_EXTNODE.2.0 bus2=SEP481353.2.0 length=47.000197 units=m phases=1 phases=1 LineCode=UA1/0A_UG_SECONDARY_1_1Cond NormAmps=150
New Line.9967666 bus1=XFR163523_EXTNODE.2.0 bus2=SEP867169.2.0 length=23.072339 units=m phases=1 phases=1 LineCode=UA1/0A_UG_SECONDARY_1_1Cond NormAmps=150
New Line.9967669 bus1=XFR163523_EXTNODE.2.0 bus2=SEP481352.2.0 length=63.188401 units=m phases=1 phases=1 LineCode=UA4/0B_UG_SECONDARY_1_1Cond NormAmps=260
New Line.9967665 bus1=XFR163523_EXTNODE.2.0 bus2=SEP481355.2.0 length=41.913952 units=m phases=1 phases=1 LineCode=UA1/0A_UG_SECONDARY_1_1Cond NormAmps=150
New Line.9967664 bus1=XFR163523_EXTNODE.2.0 bus2=JNC305829.2.0 length=35.051914 units=m phases=1 phases=1 LineCode=UA1/0A_UG_SECONDARY_1_1Cond NormAmps=150
New Line.9967668 bus1=JNC305829.2.0 bus2=JNC305837.2.0 length=0.914287 units=m phases=1 phases=1 LineCode=UA1/0A_UG_SECONDARY_1_1Cond NormAmps=150
New Line.9967460 bus1=XFR163522_EXTNODE.2.0 bus2=JNC304874.2.0 length=36.805733 units=m phases=1 phases=1 LineCode=UA1/0A_UG_SECONDARY_1_1Cond NormAmps=150
New Line.9967461 bus1=JNC304874.2.0 bus2=JNC304901.2.0 length=0.914333 units=m phases=1 phases=1 LineCode=UA1/0A_UG_SECONDARY_1_1Cond NormAmps=150
New Line.9967458 bus1=XFR163522_EXTNODE.2.0 bus2=SEP481349.2.0 length=57.365062 units=m phases=1 phases=1 LineCode=UA4/0B_UG_SECONDARY_1_1Cond NormAmps=260
New Line.9967539 bus1=XFR163522_EXTNODE.2.0 bus2=SEP481348.2.0 length=7.528033 units=m phases=1 phases=1 LineCode=UA1/0A_UG_SECONDARY_1_1Cond NormAmps=150
New Line.9967459 bus1=XFR163522_EXTNODE.2.0 bus2=JNC2415258.2.0 length=40.459159 units=m phases=1 phases=1 LineCode=UA1/0A_UG_SECONDARY_1_1Cond NormAmps=150
Edit Line.29548497 bus1=JNC2415258.2.0 bus2=SWI681197.2.0 length=3.048102 units=m phases=1 phases=1 LineCode=UA4/0B_UG_SECONDARY_1_1Cond NormAmps=260
Edit Line.29548499 bus1=SWI681197.2.0 bus2=SWI681198.2.0 length=1.524081 units=m phases=1 phases=1 LineCode=UA4/0B_UG_SECONDARY_1_1Cond NormAmps=260
New Line.29548493 bus1=SWI681198.2.0 bus2=SEP2223887.2.0 length=3.047919 units=m phases=1 phases=1 LineCode=UA4/0B_UG_SECONDARY_1_1Cond NormAmps=260
New Line.29548495 bus1=JNC2415258.2.0 bus2=SEP906215.2.0 length=3.047998 units=m phases=1 phases=1 LineCode=UA1/0A_UG_SECONDARY_1_1Cond NormAmps=150
New Line.9967462 bus1=XFR163522_EXTNODE.2.0 bus2=SEP481351.2.0 length=22.524444 units=m phases=1 phases=1 LineCode=UA1/0A_UG_SECONDARY_1_1Cond NormAmps=150
New Line.9967537 bus1=XFR163522_EXTNODE.2.0 bus2=SEP481350.2.0 length=22.822666 units=m phases=1 phases=1 LineCode=UA1/0A_UG_SECONDARY_1_1Cond NormAmps=150
New Line.9967538 bus1=XFR163522_EXTNODE.2.0 bus2=JNC2415252.2.0 length=7.908066 units=m phases=1 phases=1 LineCode=UA1/0A_UG_SECONDARY_1_1Cond NormAmps=150
Edit Line.29548087 bus1=JNC2415252.2.0 bus2=SWI681189.2.0 length=3.048075 units=m phases=1 phases=1 LineCode=UA4/0B_UG_SECONDARY_1_1Cond NormAmps=260
Edit Line.29548089 bus1=SWI681189.2.0 bus2=SWI681190.2.0 length=1.524073 units=m phases=1 phases=1 LineCode=UA4/0B_UG_SECONDARY_1_1Cond NormAmps=260
New Line.29548083 bus1=SWI681190.2.0 bus2=SEP2223883.2.0 length=3.047855 units=m phases=1 phases=1 LineCode=UA4/0B_UG_SECONDARY_1_1Cond NormAmps=260
New Line.29548085 bus1=JNC2415252.2.0 bus2=SEP481347.2.0 length=3.047974 units=m phases=1 phases=1 LineCode=UA1/0A_UG_SECONDARY_1_1Cond NormAmps=150
New Line.9967541 bus1=XFR163522_EXTNODE.2.0 bus2=JNC305186.2.0 length=41.740454 units=m phases=1 phases=1 LineCode=UA1/0A_UG_SECONDARY_1_1Cond NormAmps=150
New Line.9967540 bus1=JNC305186.2.0 bus2=JNC305183.2.0 length=0.914553 units=m phases=1 phases=1 LineCode=UA1/0A_UG_SECONDARY_1_1Cond NormAmps=150
New Line.9967542 bus1=JNC305186.2.0 bus2=JNC305132.2.0 length=47.833306 units=m phases=1 phases=1 LineCode=UA1/0A_UG_SECONDARY_1_1Cond NormAmps=150
New Line.9967480 bus1=JNC305132.2.0 bus2=JNC305131.2.0 length=0.914441 units=m phases=1 phases=1 LineCode=UA1/0A_UG_SECONDARY_1_1Cond NormAmps=150
New Line.9967453 bus1=XFR163521_EXTNODE.2.0 bus2=SEP481341.2.0 length=21.927806 units=m phases=1 phases=1 LineCode=UA1/0A_UG_SECONDARY_1_1Cond NormAmps=150
New Line.9967451 bus1=XFR163521_EXTNODE.2.0 bus2=JNC304242.2.0 length=31.101125 units=m phases=1 phases=1 LineCode=UA1/0A_UG_SECONDARY_1_1Cond NormAmps=150
New Line.9967452 bus1=JNC304242.2.0 bus2=JNC304226.2.0 length=0.914422 units=m phases=1 phases=1 LineCode=UA1/0A_UG_SECONDARY_1_1Cond NormAmps=150
New Line.9967454 bus1=XFR163521_EXTNODE.2.0 bus2=JNC2415256.2.0 length=6.705564 units=m phases=1 phases=1 LineCode=UA1/0A_UG_SECONDARY_1_1Cond NormAmps=150
Edit Line.29548418 bus1=JNC2415256.2.0 bus2=SWI681195.2.0 length=3.047849 units=m phases=1 phases=1 LineCode=UA4/0B_UG_SECONDARY_1_1Cond NormAmps=260
Edit Line.29548420 bus1=SWI681195.2.0 bus2=SWI681196.2.0 length=1.524149 units=m phases=1 phases=1 LineCode=UA4/0B_UG_SECONDARY_1_1Cond NormAmps=260
New Line.29548414 bus1=SWI681196.2.0 bus2=SEP2223886.2.0 length=3.047992 units=m phases=1 phases=1 LineCode=UA4/0B_UG_SECONDARY_1_1Cond NormAmps=260
New Line.29548416 bus1=JNC2415256.2.0 bus2=SEP481343.2.0 length=3.048008 units=m phases=1 phases=1 LineCode=UA1/0A_UG_SECONDARY_1_1Cond NormAmps=150
New Line.9967455 bus1=XFR163521_EXTNODE.2.0 bus2=JNC2415250.2.0 length=6.724622 units=m phases=1 phases=1 LineCode=UA1/0A_UG_SECONDARY_1_1Cond NormAmps=150
Edit Line.29548011 bus1=JNC2415250.2.0 bus2=SWI681187.2.0 length=3.048064 units=m phases=1 phases=1 LineCode=UA4/0B_UG_SECONDARY_1_1Cond NormAmps=260
Edit Line.29548013 bus1=SWI681187.2.0 bus2=SWI681188.2.0 length=1.523974 units=m phases=1 phases=1 LineCode=UA4/0B_UG_SECONDARY_1_1Cond NormAmps=260
New Line.29548007 bus1=SWI681188.2.0 bus2=SEP2223882.2.0 length=3.047771 units=m phases=1 phases=1 LineCode=UA4/0B_UG_SECONDARY_1_1Cond NormAmps=260
New Line.29548009 bus1=JNC2415250.2.0 bus2=SEP867167.2.0 length=3.047967 units=m phases=1 phases=1 LineCode=UA1/0A_UG_SECONDARY_1_1Cond NormAmps=150
New Line.9967456 bus1=XFR163521_EXTNODE.2.0 bus2=SEP481344.2.0 length=26.099171 units=m phases=1 phases=1 LineCode=UA1/0A_UG_SECONDARY_1_1Cond NormAmps=150
New Line.9967457 bus1=XFR163521_EXTNODE.2.0 bus2=SEP481346.2.0 length=24.96459 units=m phases=1 phases=1 LineCode=UA1/0A_UG_SECONDARY_1_1Cond NormAmps=150
New Line.9967448 bus1=XFR163524_EXTNODE.2.0 bus2=SEP481334.2.0 length=5.646995 units=m phases=1 phases=1 LineCode=UA1/0A_UG_SECONDARY_1_1Cond NormAmps=150
New Line.9967449 bus1=XFR163524_EXTNODE.2.0 bus2=SEP867165.2.0 length=6.302714 units=m phases=1 phases=1 LineCode=UA1/0A_UG_SECONDARY_1_1Cond NormAmps=150
New Line.9967398 bus1=XFR163524_EXTNODE.2.0 bus2=JNC2414766.2.0 length=25.764251 units=m phases=1 phases=1 LineCode=UA1/0A_UG_SECONDARY_1_1Cond NormAmps=150
Edit Line.29547651 bus1=JNC2414766.2.0 bus2=SWI681039.2.0 length=3.047923 units=m phases=1 phases=1 LineCode=UA4/0B_UG_SECONDARY_1_1Cond NormAmps=260
Edit Line.29547653 bus1=SWI681039.2.0 bus2=SWI681040.2.0 length=1.523952 units=m phases=1 phases=1 LineCode=UA4/0B_UG_SECONDARY_1_1Cond NormAmps=260
New Line.29547647 bus1=SWI681040.2.0 bus2=SEP2223880.2.0 length=3.048129 units=m phases=1 phases=1 LineCode=UA4/0B_UG_SECONDARY_1_1Cond NormAmps=260
New Line.29547649 bus1=JNC2414766.2.0 bus2=SEP481339.2.0 length=3.048015 units=m phases=1 phases=1 LineCode=UA1/0A_UG_SECONDARY_1_1Cond NormAmps=150
New Line.9967450 bus1=XFR163524_EXTNODE.2.0 bus2=SEP481340.2.0 length=24.235177 units=m phases=1 phases=1 LineCode=UA1/0A_UG_SECONDARY_1_1Cond NormAmps=150
New Line.9967396 bus1=XFR163524_EXTNODE.2.0 bus2=JNC303358.2.0 length=44.473973 units=m phases=1 phases=1 LineCode=UA1/0A_UG_SECONDARY_1_1Cond NormAmps=150
New Line.9967397 bus1=JNC303358.2.0 bus2=JNC303347.2.0 length=0.914422 units=m phases=1 phases=1 LineCode=UA1/0A_UG_SECONDARY_1_1Cond NormAmps=150
New Line.9967399 bus1=XFR163524_EXTNODE.2.0 bus2=SEP481338.2.0 length=35.579149 units=m phases=1 phases=1 LineCode=UA1/0A_UG_SECONDARY_1_1Cond NormAmps=150
New Line.9967447 bus1=XFR163524_EXTNODE.2.0 bus2=SEP481335.2.0 length=41.87677 units=m phases=1 phases=1 LineCode=UA1/0A_UG_SECONDARY_1_1Cond NormAmps=150
New Line.9967389 bus1=XFR163525_EXTNODE.2.0 bus2=SEP485212.2.0 length=37.394703 units=m phases=1 phases=1 LineCode=UA4/0B_UG_SECONDARY_1_1Cond NormAmps=260
New Line.9967395 bus1=XFR163525_EXTNODE.2.0 bus2=SEP945374.2.0 length=5.778536 units=m phases=1 phases=1 LineCode=UA1/0A_UG_SECONDARY_1_1Cond NormAmps=150
New Line.9967394 bus1=XFR163525_EXTNODE.2.0 bus2=SEP485211.2.0 length=24.582336 units=m phases=1 phases=1 LineCode=UA1/0A_UG_SECONDARY_1_1Cond NormAmps=150
New Line.9967387 bus1=XFR163525_EXTNODE.2.0 bus2=SEP481333.2.0 length=52.440503 units=m phases=1 phases=1 LineCode=UA4/0B_UG_SECONDARY_1_1Cond NormAmps=260
New Line.9967393 bus1=XFR163525_EXTNODE.2.0 bus2=JNC2414768.2.0 length=20.992482 units=m phases=1 phases=1 LineCode=UA1/0A_UG_SECONDARY_1_1Cond NormAmps=150
Edit Line.29547858 bus1=JNC2414768.2.0 bus2=SWI681185.2.0 length=3.047843 units=m phases=1 phases=1 LineCode=UA4/0B_UG_SECONDARY_1_1Cond NormAmps=260
Edit Line.29547860 bus1=SWI681185.2.0 bus2=SWI681186.2.0 length=1.524058 units=m phases=1 phases=1 LineCode=UA4/0B_UG_SECONDARY_1_1Cond NormAmps=260
New Line.29547854 bus1=SWI681186.2.0 bus2=SEP2223881.2.0 length=3.047862 units=m phases=1 phases=1 LineCode=UA4/0B_UG_SECONDARY_1_1Cond NormAmps=260
New Line.29547856 bus1=JNC2414768.2.0 bus2=SEP485207.2.0 length=3.048037 units=m phases=1 phases=1 LineCode=UA1/0A_UG_SECONDARY_1_1Cond NormAmps=150
New Line.10050654 bus1=XFR163525_EXTNODE.2.0 bus2=SEP481372.2.0 length=20.805459 units=m phases=1 phases=1 LineCode=UA1/0A_UG_SECONDARY_1_1Cond NormAmps=150
New Line.9967391 bus1=XFR163525_EXTNODE.2.0 bus2=JNC302611.2.0 length=31.554491 units=m phases=1 phases=1 LineCode=UA1/0A_UG_SECONDARY_1_1Cond NormAmps=150
New Line.9967390 bus1=JNC302611.2.0 bus2=JNC302613.2.0 length=0.91448 units=m phases=1 phases=1 LineCode=UA1/0A_UG_SECONDARY_1_1Cond NormAmps=150
New Line.9967392 bus1=JNC302611.2.0 bus2=JNC302486.2.0 length=39.143309 units=m phases=1 phases=1 LineCode=UA1/0A_UG_SECONDARY_1_1Cond NormAmps=150
New Line.9967388 bus1=JNC302486.2.0 bus2=JNC302474.2.0 length=0.914505 units=m phases=1 phases=1 LineCode=UA1/0A_UG_SECONDARY_1_1Cond NormAmps=150
New Line.9967182 bus1=XFR163526_EXTNODE.2.0 bus2=SEP485189.2.0 length=25.768734 units=m phases=1 phases=1 LineCode=UA1/0A_UG_SECONDARY_1_1Cond NormAmps=150
New Line.9967181 bus1=XFR163526_EXTNODE.2.0 bus2=SEP485190.2.0 length=24.75187 units=m phases=1 phases=1 LineCode=UA1/0A_UG_SECONDARY_1_1Cond NormAmps=150
New Line.9967322 bus1=XFR163526_EXTNODE.2.0 bus2=JNC301701.2.0 length=65.881495 units=m phases=1 phases=1 LineCode=UA1/0A_UG_SECONDARY_1_1Cond NormAmps=150