!Load
New Load.6850845215_2 Phases=1 Bus=SEP669462.2.0 kW=7.393 kVAr=1.85313426796296 kV=0.240 Basefreq=60 Model=1 Vminpu=0.95 Vmaxpu=1.05 status=variable daily=6850845215_2
New Load.4560074609_2 Phases=1 Bus=SEP568175.3.0 kW=3.807 kVAr=0.954262263380605 kV=0.240 Basefreq=60 Model=1 Vminpu=0.95 Vmaxpu=1.05 status=variable daily=4560074609_2
New Load.1731190745_2 Phases=1 Bus=SEP872175.2.0 kW=5.32 kVAr=1.45097359368823 kV=0.240 Basefreq=60 Model=1 Vminpu=0.95 Vmaxpu=1.05 status=variable daily=1731190745_2
New Load.1310458729_2 Phases=1 Bus=SEP89999.3.0 kW=5.343 kVAr=1.33928376445834 kV=0.240 Basefreq=60 Model=1 Vminpu=0.95 Vmaxpu=1.05 status=variable daily=1310458729_2
New Load.8590408755_2 Phases=1 Bus=SEP547400.1.0 kW=4.35 kVAr=1.09024627293891 kV=0.240 Basefreq=60 Model=1 Vminpu=0.95 Vmaxpu=1.05 status=variable daily=8590408755_2
New Load.9770183061_2 Phases=1 Bus=SEP810455.1.0 kW=0.03 kVAr=0.0104181993910445 kV=0.240 Basefreq=60 Model=1 Vminpu=0.95 Vmaxpu=1.05 status=variable daily=9770183061_2
New Load.2131134571_2 Phases=1 Bus=SEP59157.2.0 kW=7.35 kVAr=2.66715043932069 kV=0.240 Basefreq=60 Model=1 Vminpu=0.95 Vmaxpu=1.05 status=variable daily=2131134571_2
New Load.3460276427_2 Phases=1 Bus=JNC284727.2.0 kW=3.7 kVAr=0.93069359767339 kV=0.240 Basefreq=60 Model=1 Vminpu=0.95 Vmaxpu=1.05 status=variable daily=3460276427_2
New Load.5970105378_2 Phases=1 Bus=SEP666650.3.0 kW=4.499 kVAr=1.12765744743206 kV=0.240 Basefreq=60 Model=1 Vminpu=0.95 Vmaxpu=1.05 status=variable daily=5970105378_2
New Load.8640885161_2 Phases=1 Bus=SEP894436.2.0 kW=6.66 kVAr=1.66928891751392 kV=0.240 Basefreq=60 Model=1 Vminpu=0.95 Vmaxpu=1.05 status=variable daily=8640885161_2
New Load.6880058204_2 Phases=1 Bus=SEP911017.2.0 kW=4.66 kVAr=1.69107350402143 kV=0.240 Basefreq=60 Model=1 Vminpu=0.95 Vmaxpu=1.05 status=variable daily=6880058204_2
New Load.6071262824_2 Phases=1 Bus=SEP1194328.1.0 kW=3.073 kVAr=0.77043056682574 kV=0.240 Basefreq=60 Model=1 Vminpu=0.95 Vmaxpu=1.05 status=variable daily=6071262824_2
New Load.3470780735_2 Phases=1 Bus=SEP2003057.2.0 kW=4.13 kVAr=1.03528385820967 kV=0.240 Basefreq=60 Model=1 Vminpu=0.95 Vmaxpu=1.05 status=variable daily=3470780735_2
New Load.3831211101_2 Phases=1 Bus=SEP49423.2.0 kW=6.36 kVAr=1.59412117281778 kV=0.240 Basefreq=60 Model=1 Vminpu=0.95 Vmaxpu=1.05 status=variable daily=3831211101_2
New Load.1000320380_2 Phases=1 Bus=SEP543402.1.0 kW=5.01 kVAr=1.25571101666525 kV=0.240 Basefreq=60 Model=1 Vminpu=0.95 Vmaxpu=1.05 status=variable daily=1000320380_2
New Load.2591131288_2 Phases=1 Bus=SEP548551.3.0 kW=4.41 kVAr=1.10687321092118 kV=0.240 Basefreq=60 Model=1 Vminpu=0.95 Vmaxpu=1.05 status=variable daily=2591131288_2
New Load.8232009263_2 Phases=1 Bus=SEP534219.3.0 kW=2.05 kVAr=0.51543088548501 kV=0.240 Basefreq=60 Model=1 Vminpu=0.95 Vmaxpu=1.05 status=variable daily=8232009263_2
New Load.7471040344_2 Phases=1 Bus=SEP653141.2.0 kW=7.12599999999995 kVAr=2.58610926137187 kV=0.240 Basefreq=60 Model=1 Vminpu=0.95 Vmaxpu=1.05 status=variable daily=7471040344_2
New Load.1290613660_2 Phases=1 Bus=SEP956926.1.0 kW=3.72 kVAr=0.932615563925595 kV=0.240 Basefreq=60 Model=1 Vminpu=0.95 Vmaxpu=1.05 status=variable daily=1290613660_2
New Load.5921227695_2 Phases=1 Bus=SEP1052585.1.0 kW=8.38 kVAr=2.10037749892487 kV=0.240 Basefreq=60 Model=1 Vminpu=0.95 Vmaxpu=1.05 status=variable daily=5921227695_2
New Load.9020221867_2 Phases=1 Bus=SEP833082.2.0 kW=2.14 kVAr=0.776569274424675 kV=0.240 Basefreq=60 Model=1 Vminpu=0.95 Vmaxpu=1.05 status=variable daily=9020221867_2
New Load.4040189338_2 Phases=1 Bus=SEP545228.3.0 kW=3.04 kVAr=1.10239705926164 kV=0.240 Basefreq=60 Model=1 Vminpu=0.95 Vmaxpu=1.05 status=variable daily=4040189338_2
New Load.3110225982_2 Phases=1 Bus=SEP667032.1.0 kW=3.91299999999999 kVAr=0.980928587956005 kV=0.240 Basefreq=60 Model=1 Vminpu=0.95 Vmaxpu=1.05 status=variable daily=3110225982_2
New Load.4591311874_2 Phases=1 Bus=SEP833081.2.0 kW=3.49099999999999 kVAr=1.26679297581715 kV=0.240 Basefreq=60 Model=1 Vminpu=0.95 Vmaxpu=1.05 status=variable daily=4591311874_2
New Load.7670784856_2 Phases=1 Bus=SEP1194321.1.0 kW=4.851 kVAr=1.21669820464439 kV=0.240 Basefreq=60 Model=1 Vminpu=0.95 Vmaxpu=1.05 status=variable daily=7670784856_2
New Load.1390127364_2 Phases=1 Bus=SEP661264.2.0 kW=2.53 kVAr=0.634377840726505 kV=0.240 Basefreq=60 Model=1 Vminpu=0.95 Vmaxpu=1.05 status=variable daily=1390127364_2
New Load.9360976972_2 Phases=1 Bus=SEP677733.1.0 kW=5.82 kVAr=1.45871449919372 kV=0.240 Basefreq=60 Model=1 Vminpu=0.95 Vmaxpu=1.05 status=variable daily=9360976972_2
New Load.9721006925_2 Phases=1 Bus=SEP838148.3.0 kW=5.887 kVAr=1.47548025087871 kV=0.240 Basefreq=60 Model=1 Vminpu=0.95 Vmaxpu=1.05 status=variable daily=9721006925_2
New Load.1551122655_2 Phases=1 Bus=SEP933618.3.0 kW=1.68 kVAr=0.609637662870975 kV=0.240 Basefreq=60 Model=1 Vminpu=0.95 Vmaxpu=1.05 status=variable daily=1551122655_2
New Load.8830773597_2 Phases=1 Bus=SEP838157.3.0 kW=4.689 kVAr=1.70164439521053 kV=0.240 Basefreq=60 Model=1 Vminpu=0.95 Vmaxpu=1.05 status=variable daily=8830773597_2
New Load.8930968776_2 Phases=1 Bus=SEP838155.3.0 kW=2.11 kVAr=0.765750932873245 kV=0.240 Basefreq=60 Model=1 Vminpu=0.95 Vmaxpu=1.05 status=variable daily=8930968776_2
New Load.3981052155_2 Phases=1 Bus=SEP838156.3.0 kW=5.86 kVAr=2.12661131905304 kV=0.240 Basefreq=60 Model=1 Vminpu=0.95 Vmaxpu=1.05 status=variable daily=3981052155_2
New Load.8970051402_2 Phases=1 Bus=SEP838159.3.0 kW=5.44 kVAr=1.97428360575021 kV=0.240 Basefreq=60 Model=1 Vminpu=0.95 Vmaxpu=1.05 status=variable daily=8970051402_2
New Load.9340299463_2 Phases=1 Bus=SEP111722.1.0 kW=5.39 kVAr=1.36444065207496 kV=0.240 Basefreq=60 Model=1 Vminpu=0.95 Vmaxpu=1.05 status=variable daily=9340299463_2
New Load.0210191795_2 Phases=1 Bus=SEP1122971.2.0 kW=5.015 kVAr=1.82012457198255 kV=0.240 Basefreq=60 Model=1 Vminpu=0.95 Vmaxpu=1.05 status=variable daily=0210191795_2
New Load.8271226855_2 Phases=1 Bus=SEP481371.3.0 kW=0.03 kVAr=0.0108467123144572 kV=0.240 Basefreq=60 Model=1 Vminpu=0.95 Vmaxpu=1.05 status=variable daily=8271226855_2
New Load.8860201280_2 Phases=1 Bus=SEP897596.3.0 kW=1.72399999999999 kVAr=0.432249231513525 kV=0.240 Basefreq=60 Model=1 Vminpu=0.95 Vmaxpu=1.05 status=variable daily=8860201280_2
New Load.3090050812_2 Phases=1 Bus=SEP926459.1.0 kW=4.15499999999999 kVAr=1.04277522272676 kV=0.240 Basefreq=60 Model=1 Vminpu=0.95 Vmaxpu=1.05 status=variable daily=3090050812_2
New Load.2250858692_2 Phases=1 Bus=SEP549492.2.0 kW=4.34 kVAr=1.08778822758909 kV=0.240 Basefreq=60 Model=1 Vminpu=0.95 Vmaxpu=1.05 status=variable daily=2250858692_2
New Load.0291245353_2 Phases=1 Bus=SEP548330.3.0 kW=5.54 kVAr=1.3900436207102 kV=0.240 Basefreq=60 Model=1 Vminpu=0.95 Vmaxpu=1.05 status=variable daily=0291245353_2
New Load.3990442822_2 Phases=1 Bus=SEP854106.1.0 kW=3.90199999999999 kVAr=0.97816418508947 kV=0.240 Basefreq=60 Model=1 Vminpu=0.95 Vmaxpu=1.05 status=variable daily=3990442822_2
New Load.6901038234_2 Phases=1 Bus=SEP1121751.2.0 kW=6.34 kVAr=1.58915122790067 kV=0.240 Basefreq=60 Model=1 Vminpu=0.95 Vmaxpu=1.05 status=variable daily=6901038234_2
New Load.6650392706_2 Phases=1 Bus=SEP477063.1.0 kW=0.54 kVAr=0.135436022511735 kV=0.240 Basefreq=60 Model=1 Vminpu=0.95 Vmaxpu=1.05 status=variable daily=6650392706_2
New Load.3971099854_2 Phases=1 Bus=SEP59058.2.0 kW=2.7 kVAr=0.979269544207485 kV=0.240 Basefreq=60 Model=1 Vminpu=0.95 Vmaxpu=1.05 status=variable daily=3971099854_2
New Load.1350649636_2 Phases=1 Bus=SEP886431.1.0 kW=4.63 kVAr=1.1604658218053 kV=0.240 Basefreq=60 Model=1 Vminpu=0.95 Vmaxpu=1.05 status=variable daily=1350649636_2
New Load.2220450016_2 Phases=1 Bus=SEP857980.2.0 kW=5.22 kVAr=1.88850280091378 kV=0.240 Basefreq=60 Model=1 Vminpu=0.95 Vmaxpu=1.05 status=variable daily=2220450016_2
New Load.8310959496_2 Phases=1 Bus=SEP662419.2.0 kW=4.59 kVAr=1.15135259595293 kV=0.240 Basefreq=60 Model=1 Vminpu=0.95 Vmaxpu=1.05 status=variable daily=8310959496_2
New Load.1290191747_2 Phases=1 Bus=SEP485211.2.0 kW=2.9 kVAr=0.72695709849617 kV=0.240 Basefreq=60 Model=1 Vminpu=0.95 Vmaxpu=1.05 status=variable daily=1290191747_2
New Load.9010735242_2 Phases=1 Bus=SEP858560.3.0 kW=4.944 kVAr=1.23918406917596 kV=0.240 Basefreq=60 Model=1 Vminpu=0.95 Vmaxpu=1.05 status=variable daily=9010735242_2
New Load.2390391889_2 Phases=1 Bus=SEP911654.3.0 kW=4.48 kVAr=1.12441534972626 kV=0.240 Basefreq=60 Model=1 Vminpu=0.95 Vmaxpu=1.05 status=variable daily=2390391889_2
New Load.4841083121_2 Phases=1 Bus=SEP548548.3.0 kW=5.09 kVAr=1.27727640482105 kV=0.240 Basefreq=60 Model=1 Vminpu=0.95 Vmaxpu=1.05 status=variable daily=4841083121_2
New Load.9130244103_2 Phases=1 Bus=SEP854100.1.0 kW=6.505 kVAr=1.63054658403935 kV=0.240 Basefreq=60 Model=1 Vminpu=0.95 Vmaxpu=1.05 status=variable daily=9130244103_2
New Load.1201024018_2 Phases=1 Bus=SEP833071.2.0 kW=2.74299999999999 kVAr=0.687614492619035 kV=0.240 Basefreq=60 Model=1 Vminpu=0.95 Vmaxpu=1.05 status=variable daily=1201024018_2
New Load.2850335841_2 Phases=1 Bus=SEP549491.2.0 kW=0.68 kVAr=0.170521201452695 kV=0.240 Basefreq=60 Model=1 Vminpu=0.95 Vmaxpu=1.05 status=variable daily=2850335841_2
New Load.2050847805_2 Phases=1 Bus=SEP559180.3.0 kW=4.23 kVAr=1.0602500399112 kV=0.240 Basefreq=60 Model=1 Vminpu=0.95 Vmaxpu=1.05 status=variable daily=2050847805_2
New Load.3474021731_2 Phases=1 Bus=SEP2172276.3.0 kW=5.53 kVAr=1.47882036750785 kV=0.240 Basefreq=60 Model=1 Vminpu=0.95 Vmaxpu=1.05 status=variable daily=3474021731_2
New Load.9680330158_2 Phases=1 Bus=SEP543882.1.0 kW=4.03 kVAr=1.01008571111531 kV=0.240 Basefreq=60 Model=1 Vminpu=0.95 Vmaxpu=1.05 status=variable daily=9680330158_2
New Load.8060719196_2 Phases=1 Bus=SEP58695.2.0 kW=5.6 kVAr=2.03165916747338 kV=0.240 Basefreq=60 Model=1 Vminpu=0.95 Vmaxpu=1.05 status=variable daily=8060719196_2
New Load.1651325715_2 Phases=1 Bus=SEP58697.2.0 kW=4.93 kVAr=1.78887299449748 kV=0.240 Basefreq=60 Model=1 Vminpu=0.95 Vmaxpu=1.05 status=variable daily=1651325715_2
New Load.5700368402_2 Phases=1 Bus=SEP663185.1.0 kW=4.629 kVAr=1.16034551392978 kV=0.240 Basefreq=60 Model=1 Vminpu=0.95 Vmaxpu=1.05 status=variable daily=5700368402_2
New Load.4620355144_2 Phases=1 Bus=SEP81264.3.0 kW=1.93 kVAr=0.483731196573071 kV=0.240 Basefreq=60 Model=1 Vminpu=0.95 Vmaxpu=1.05 status=variable daily=4620355144_2
New Load.1440169377_2 Phases=1 Bus=SEP573096.3.0 kW=2.384 kVAr=0.5976119272171 kV=0.240 Basefreq=60 Model=1 Vminpu=0.95 Vmaxpu=1.05 status=variable daily=1440169377_2
New Load.2670248012_2 Phases=1 Bus=SEP663587.1.0 kW=2.94 kVAr=0.73699460827212 kV=0.240 Basefreq=60 Model=1 Vminpu=0.95 Vmaxpu=1.05 status=variable daily=2670248012_2
New Load.1830462256_2 Phases=1 Bus=SEP833087.2.0 kW=3.069 kVAr=1.11360918528681 kV=0.240 Basefreq=60 Model=1 Vminpu=0.95 Vmaxpu=1.05 status=variable daily=1830462256_2
New Load.6970121471_2 Phases=1 Bus=SEP683343.2.0 kW=6.38 kVAr=1.59922201908695 kV=0.240 Basefreq=60 Model=1 Vminpu=0.95 Vmaxpu=1.05 status=variable daily=6970121471_2
New Load.8690943237_2 Phases=1 Bus=SEP805022.3.0 kW=4.2 kVAr=1.05271444733127 kV=0.240 Basefreq=60 Model=1 Vminpu=0.95 Vmaxpu=1.05 status=variable daily=8690943237_2
New Load.8234107493_2 Phases=1 Bus=SEP540407.3.0 kW=3.06 kVAr=0.76855845301831 kV=0.240 Basefreq=60 Model=1 Vminpu=0.95 Vmaxpu=1.05 status=variable daily=8234107493_2
New Load.1520914232_2 Phases=1 Bus=SEP833088.2.0 kW=3.23999999999999 kVAr=1.17565318633947 kV=0.240 Basefreq=60 Model=1 Vminpu=0.95 Vmaxpu=1.05 status=variable daily=1520914232_2
New Load.4151043289_2 Phases=1 Bus=SEP1195362.3.0 kW=2.96 kVAr=1.07425770497615 kV=0.240 Basefreq=60 Model=1 Vminpu=0.95 Vmaxpu=1.05 status=variable daily=4151043289_2
New Load.2430436846_2 Phases=1 Bus=SEP664337.3.0 kW=2.977 kVAr=0.747468475264275 kV=0.240 Basefreq=60 Model=1 Vminpu=0.95 Vmaxpu=1.05 status=variable daily=2430436846_2
New Load.2720855452_2 Phases=1 Bus=SEP70358.1.0 kW=4.75 kVAr=1.19064533297933 kV=0.240 Basefreq=60 Model=1 Vminpu=0.95 Vmaxpu=1.05 status=variable daily=2720855452_2
New Load.4281118872_2 Phases=1 Bus=SEP102995.1.0 kW=3.2 kVAr=0.802235003635095 kV=0.240 Basefreq=60 Model=1 Vminpu=0.95 Vmaxpu=1.05 status=variable daily=4281118872_2
New Load.6430255944_2 Phases=1 Bus=SEP825977.1.0 kW=5.152 kVAr=1.29150629557887 kV=0.240 Basefreq=60 Model=1 Vminpu=0.95 Vmaxpu=1.05 status=variable daily=6430255944_2
New Load.2221316376_2 Phases=1 Bus=SEP1195670.2.0 kW=2.924 kVAr=0.73301063288439 kV=0.240 Basefreq=60 Model=1 Vminpu=0.95 Vmaxpu=1.05 status=variable daily=2221316376_2
New Load.4960792993_2 Phases=1 Bus=SEP662019.3.0 kW=3.59499999999999 kVAr=0.90122548579311 kV=0.240 Basefreq=60 Model=1 Vminpu=0.95 Vmaxpu=1.05 status=variable daily=4960792993_2
New Load.7670147178_2 Phases=1 Bus=SEP1052650.1.0 kW=3.76 kVAr=0.94247278028939 kV=0.240 Basefreq=60 Model=1 Vminpu=0.95 Vmaxpu=1.05 status=variable daily=7670147178_2
New Load.9710955719_2 Phases=1 Bus=SEP551648.2.0 kW=4.03 kVAr=1.42051549067328 kV=0.240 Basefreq=60 Model=1 Vminpu=0.95 Vmaxpu=1.05 status=variable daily=9710955719_2
New Load.6740805019_2 Phases=1 Bus=SEP546897.1.0 kW=3.53 kVAr=0.884718411023715 kV=0.240 Basefreq=60 Model=1 Vminpu=0.95 Vmaxpu=1.05 status=variable daily=6740805019_2
New Load.9871298148_2 Phases=1 Bus=SEP554953.1.0 kW=0.77 kVAr=0.193021812750917 kV=0.240 Basefreq=60 Model=1 Vminpu=0.95 Vmaxpu=1.05 status=variable daily=9871298148_2
New Load.3476334151_2 Phases=1 Bus=SEP2172277.3.0 kW=4.049 kVAr=1.22865264288119 kV=0.240 Basefreq=60 Model=1 Vminpu=0.95 Vmaxpu=1.05 status=variable daily=3476334151_2
New Load.5600633689_2 Phases=1 Bus=SEP543448.2.0 kW=0.16 kVAr=0.042716443483529 kV=0.240 Basefreq=60 Model=1 Vminpu=0.95 Vmaxpu=1.05 status=variable daily=5600633689_2
New Load.0630931524_2 Phases=1 Bus=SEP591535.3.0 kW=3.184 kVAr=0.798134950634505 kV=0.240 Basefreq=60 Model=1 Vminpu=0.95 Vmaxpu=1.05 status=variable daily=0630931524_2
New Load.6320061977_2 Phases=1 Bus=SEP931189.2.0 kW=5.99 kVAr=1.50127391939041 kV=0.240 Basefreq=60 Model=1 Vminpu=0.95 Vmaxpu=1.05 status=variable daily=6320061977_2
New Load.7200894932_2 Phases=1 Bus=SEP805001.2.0 kW=4.45 kVAr=1.11537612878397 kV=0.240 Basefreq=60 Model=1 Vminpu=0.95 Vmaxpu=1.05 status=variable daily=7200894932_2
New Load.9650289954_2 Phases=1 Bus=SEP664308.3.0 kW=5.693 kVAr=2.06614467245211 kV=0.240 Basefreq=60 Model=1 Vminpu=0.95 Vmaxpu=1.05 status=variable daily=9650289954_2
New Load.3471132658_2 Phases=1 Bus=SEP1996279.1.0 kW=6.56 kVAr=2.38032321690414 kV=0.240 Basefreq=60 Model=1 Vminpu=0.95 Vmaxpu=1.05 status=variable daily=3471132658_2
New Load.6621001366_2 Phases=1 Bus=Newbus_6621001366_2.2.0 kW=3.89 kVAr=0.97493811459365 kV=0.240 Basefreq=60 Model=1 Vminpu=0.95 Vmaxpu=1.05 status=variable daily=6621001366_2
New Load.5620038560_2 Phases=1 Bus=JNC305624.2.0 kW=8.89 kVAr=2.228055970148 kV=0.240 Basefreq=60 Model=1 Vminpu=0.95 Vmaxpu=1.05 status=variable daily=5620038560_2
New Load.5130306419_2 Phases=1 Bus=SEP680697.2.0 kW=6.18 kVAr=1.54886976180716 kV=0.240 Basefreq=60 Model=1 Vminpu=0.95 Vmaxpu=1.05 status=variable daily=5130306419_2
New Load.9551128639_2 Phases=1 Bus=SEP742953.2.0 kW=7.95 kVAr=1.9924746168699 kV=0.240 Basefreq=60 Model=1 Vminpu=0.95 Vmaxpu=1.05 status=variable daily=9551128639_2
New Load.3190945659_2 Phases=1 Bus=SEP549834.2.0 kW=5.65 kVAr=1.41639005866659 kV=0.240 Basefreq=60 Model=1 Vminpu=0.95 Vmaxpu=1.05 status=variable daily=3190945659_2
New Load.6641075901_2 Phases=1 Bus=SEP59031.1.0 kW=4.63 kVAr=1.16046077262314 kV=0.240 Basefreq=60 Model=1 Vminpu=0.95 Vmaxpu=1.05 status=variable daily=6641075901_2
New Load.3471378722_2 Phases=1 Bus=SEP2171344.3.0 kW=5.52 kVAr=1.38558337835153 kV=0.240 Basefreq=60 Model=1 Vminpu=0.95 Vmaxpu=1.05 status=variable daily=3471378722_2
New Load.6490522437_2 Phases=1 Bus=SEP81255.3.0 kW=2.524 kVAr=0.632639221321045 kV=0.240 Basefreq=60 Model=1 Vminpu=0.95 Vmaxpu=1.05 status=variable daily=6490522437_2
New Load.3720496317_2 Phases=1 Bus=SEP805028.3.0 kW=4.452 kVAr=1.61485593969038 kV=0.240 Basefreq=60 Model=1 Vminpu=0.95 Vmaxpu=1.05 status=variable daily=3720496317_2
New Load.7111236239_2 Phases=1 Bus=SEP485190.2.0 kW=5.25 kVAr=1.31580627139793 kV=0.240 Basefreq=60 Model=1 Vminpu=0.95 Vmaxpu=1.05 status=variable daily=7111236239_2
New Load.6001294435_2 Phases=1 Bus=SEP664315.2.0 kW=2.841 kVAr=1.03090798527079 kV=0.240 Basefreq=60 Model=1 Vminpu=0.95 Vmaxpu=1.05 status=variable daily=6001294435_2
New Load.9740144532_2 Phases=1 Bus=SEP960570.2.0 kW=10.65 kVAr=2.66928206302555 kV=0.240 Basefreq=60 Model=1 Vminpu=0.95 Vmaxpu=1.05 status=variable daily=9740144532_2
New Load.6850546191_2 Phases=1 Bus=SEP1123592.2.0 kW=5.965 kVAr=1.49724297408174 kV=0.240 Basefreq=60 Model=1 Vminpu=0.95 Vmaxpu=1.05 status=variable daily=6850546191_2
New Load.5080287477_2 Phases=1 Bus=SEP546573.2.0 kW=3.65 kVAr=0.917388400256845 kV=0.240 Basefreq=60 Model=1 Vminpu=0.95 Vmaxpu=1.05 status=variable daily=5080287477_2
New Load.3475478714_2 Phases=1 Bus=SEP2006402.3.0 kW=5.87 kVAr=2.08800629639244 kV=0.240 Basefreq=60 Model=1 Vminpu=0.95 Vmaxpu=1.05 status=variable daily=3475478714_2
New Load.4340158669_2 Phases=1 Bus=SEP911397.3.0 kW=4.48 kVAr=1.12439597670975 kV=0.240 Basefreq=60 Model=1 Vminpu=0.95 Vmaxpu=1.05 status=variable daily=4340158669_2
New Load.3477848315_2 Phases=1 Bus=SEP2006401.3.0 kW=5.243 kVAr=1.90290603638547 kV=0.240 Basefreq=60 Model=1 Vminpu=0.95 Vmaxpu=1.05 status=variable daily=3477848315_2
New Load.1660354435_2 Phases=1 Bus=SEP838137.2.0 kW=5.531 kVAr=1.38653633861944 kV=0.240 Basefreq=60 Model=1 Vminpu=0.95 Vmaxpu=1.05 status=variable daily=1660354435_2
New Load.5390759043_2 Phases=1 Bus=SEP573099.3.0 kW=5.794 kVAr=1.45220958327454 kV=0.240 Basefreq=60 Model=1 Vminpu=0.95 Vmaxpu=1.05 status=variable daily=5390759043_2
New Load.1941110414_2 Phases=1 Bus=SEP1194341.2.0 kW=2.253 kVAr=0.817659959793975 kV=0.240 Basefreq=60 Model=1 Vminpu=0.95 Vmaxpu=1.05 status=variable daily=1941110414_2
New Load.3600905156_2 Phases=1 Bus=SEP482854.1.0 kW=3.21 kVAr=0.80525928077827 kV=0.240 Basefreq=60 Model=1 Vminpu=0.95 Vmaxpu=1.05 status=variable daily=3600905156_2
New Load.2431212314_2 Phases=1 Bus=SEP550506.1.0 kW=4.09 kVAr=1.02509481096363 kV=0.240 Basefreq=60 Model=1 Vminpu=0.95 Vmaxpu=1.05 status=variable daily=2431212314_2
New Load.3120480084_2 Phases=1 Bus=SEP554959.1.0 kW=6.56 kVAr=1.64410744630813 kV=0.240 Basefreq=60 Model=1 Vminpu=0.95 Vmaxpu=1.05 status=variable daily=3120480084_2
New Load.9740372850_2 Phases=1 Bus=SEP491575.2.0 kW=5.23 kVAr=1.31081642932837 kV=0.240 Basefreq=60 Model=1 Vminpu=0.95 Vmaxpu=1.05 status=variable daily=9740372850_2
New Load.8700277137_2 Phases=1 Bus=SEP855706.3.0 kW=6.68 kVAr=1.67422196359315 kV=0.240 Basefreq=60 Model=1 Vminpu=0.95 Vmaxpu=1.05 status=variable daily=8700277137_2
New Load.7131196067_2 Phases=1 Bus=SEP1075602.3.0 kW=4.364 kVAr=1.58364398885831 kV=0.240 Basefreq=60 Model=1 Vminpu=0.95 Vmaxpu=1.05 status=variable daily=7131196067_2
New Load.6700523930_2 Phases=1 Bus=SEP549881.2.0 kW=5.22 kVAr=1.89439242131592 kV=0.240 Basefreq=60 Model=1 Vminpu=0.95 Vmaxpu=1.05 status=variable daily=6700523930_2
New Load.0170187811_2 Phases=1 Bus=SEP1122964.2.0 kW=3.917 kVAr=1.42143383179635 kV=0.240 Basefreq=60 Model=1 Vminpu=0.95 Vmaxpu=1.05 status=variable daily=0170187811_2
New Load.7700210496_2 Phases=1 Bus=SEP1081715.3.0 kW=4.705 kVAr=1.17922569044616 kV=0.240 Basefreq=60 Model=1 Vminpu=0.95 Vmaxpu=1.05 status=variable daily=7700210496_2
New Load.8541324975_2 Phases=1 Bus=SEP545381.2.0 kW=0.4 kVAr=0.136951235714374 kV=0.240 Basefreq=60 Model=1 Vminpu=0.95 Vmaxpu=1.05 status=variable daily=8541324975_2
New Load.6690450888_2 Phases=1 Bus=SEP549876.2.0 kW=3.51 kVAr=0.88046059536608 kV=0.240 Basefreq=60 Model=1 Vminpu=0.95 Vmaxpu=1.05 status=variable daily=6690450888_2
New Load.5940053584_2 Phases=1 Bus=SEP563903.1.0 kW=4.813 kVAr=1.2063554654084 kV=0.240 Basefreq=60 Model=1 Vminpu=0.95 Vmaxpu=1.05 status=variable daily=5940053584_2
New Load.2530309464_2 Phases=1 Bus=SEP59117.1.0 kW=1.75 kVAr=0.438704293899353 kV=0.240 Basefreq=60 Model=1 Vminpu=0.95 Vmaxpu=1.05 status=variable daily=2530309464_2
New Load.1450940223_2 Phases=1 Bus=SEP49424.2.0 kW=2.02 kVAr=0.732698129704555 kV=0.240 Basefreq=60 Model=1 Vminpu=0.95 Vmaxpu=1.05 status=variable daily=1450940223_2
New Load.0480755571_2 Phases=1 Bus=SEP882337.1.0 kW=8.186 kVAr=2.05168993564604 kV=0.240 Basefreq=60 Model=1 Vminpu=0.95 Vmaxpu=1.05 status=variable daily=0480755571_2
New Load.7810180391_2 Phases=1 Bus=SEP960573.2.0 kW=6.965 kVAr=1.74588387563256 kV=0.240 Basefreq=60 Model=1 Vminpu=0.95 Vmaxpu=1.05 status=variable daily=7810180391_2
New Load.7420319993_2 Phases=1 Bus=SEP1194338.2.0 kW=6.369 kVAr=2.31155895634375 kV=0.240 Basefreq=60 Model=1 Vminpu=0.95 Vmaxpu=1.05 status=variable daily=7420319993_2
New Load.8110606905_2 Phases=1 Bus=SEP476797.1.0 kW=6.60499999999995 kVAr=1.65541696961854 kV=0.240 Basefreq=60 Model=1 Vminpu=0.95 Vmaxpu=1.05 status=variable daily=8110606905_2
New Load.8111255141_2 Phases=1 Bus=SEP1081394.2.0 kW=1.46 kVAr=0.368083450250074 kV=0.240 Basefreq=60 Model=1 Vminpu=0.95 Vmaxpu=1.05 status=variable daily=8111255141_2
New Load.3472180590_2 Phases=1 Bus=SEP2019325.3.0 kW=3 kVAr=1.08864333832351 kV=0.240 Basefreq=60 Model=1 Vminpu=0.95 Vmaxpu=1.05 status=variable daily=3472180590_2
New Load.1010099558_2 Phases=1 Bus=JNC282565.2.0 kW=4.71 kVAr=1.18102079042387 kV=0.240 Basefreq=60 Model=1 Vminpu=0.95 Vmaxpu=1.05 status=variable daily=1010099558_2
New Load.8330375880_2 Phases=1 Bus=SEP49416.2.0 kW=5.101 kVAr=1.28141868813946 kV=0.240 Basefreq=60 Model=1 Vminpu=0.95 Vmaxpu=1.05 status=variable daily=8330375880_2
New Load.8233869772_2 Phases=1 Bus=SEP548319.3.0 kW=4.42 kVAr=1.10942440382502 kV=0.240 Basefreq=60 Model=1 Vminpu=0.95 Vmaxpu=1.05 status=variable daily=8233869772_2
New Load.3360175629_2 Phases=1 Bus=SEP550494.1.0 kW=3.67 kVAr=0.921524793906795 kV=0.240 Basefreq=60 Model=1 Vminpu=0.95 Vmaxpu=1.05 status=variable daily=3360175629_2
New Load.5100896288_2 Phases=1 Bus=SEP933615.3.0 kW=3.528 kVAr=0.88426027943472 kV=0.240 Basefreq=60 Model=1 Vminpu=0.95 Vmaxpu=1.05 status=variable daily=5100896288_2
New Load.8490808222_2 Phases=1 Bus=SEP550519.1.0 kW=4.88 kVAr=1.22367133442505 kV=0.240 Basefreq=60 Model=1 Vminpu=0.95 Vmaxpu=1.05 status=variable daily=8490808222_2
New Load.4711101050_2 Phases=1 Bus=SEP59059.2.0 kW=2.45 kVAr=0.88887839365845 kV=0.240 Basefreq=60 Model=1 Vminpu=0.95 Vmaxpu=1.05 status=variable daily=4711101050_2
New Load.7210479141_2 Phases=1 Bus=SEP858719.1.0 kW=1.77 kVAr=0.443655607717335 kV=0.240 Basefreq=60 Model=1 Vminpu=0.95 Vmaxpu=1.05 status=variable daily=7210479141_2
New Load.7660878522_2 Phases=1 Bus=SEP1081719.3.0 kW=8.025 kVAr=2.01129213497143 kV=0.240 Basefreq=60 Model=1 Vminpu=0.95 Vmaxpu=1.05 status=variable daily=7660878522_2
New Load.1750307857_2 Phases=1 Bus=SEP481341.2.0 kW=3.45 kVAr=0.864724929886345 kV=0.240 Basefreq=60 Model=1 Vminpu=0.95 Vmaxpu=1.05 status=variable daily=1750307857_2
New Load.4780926315_2 Phases=1 Bus=SEP911890.1.0 kW=6.278 kVAr=1.57563917690361 kV=0.240 Basefreq=60 Model=1 Vminpu=0.95 Vmaxpu=1.05 status=variable daily=4780926315_2
New Load.9040293350_2 Phases=1 Bus=SEP1195612.3.0 kW=4.853 kVAr=1.21636851991667 kV=0.240 Basefreq=60 Model=1 Vminpu=0.95 Vmaxpu=1.05 status=variable daily=9040293350_2
New Load.8260647415_2 Phases=1 Bus=SEP549505.2.0 kW=6.19 kVAr=2.24611985261767 kV=0.240 Basefreq=60 Model=1 Vminpu=0.95 Vmaxpu=1.05 status=variable daily=8260647415_2
New Load.4050661766_2 Phases=1 Bus=SEP1195666.3.0 kW=2.26199999999999 kVAr=0.817968026093995 kV=0.240 Basefreq=60 Model=1 Vminpu=0.95 Vmaxpu=1.05 status=variable daily=4050661766_2
New Load.4040481904_2 Phases=1 Bus=SEP554958.1.0 kW=5.23 kVAr=1.310799118507 kV=0.240 Basefreq=60 Model=1 Vminpu=0.95 Vmaxpu=1.05 status=variable daily=4040481904_2
New Load.7950246258_2 Phases=1 Bus=SEP665514.3.0 kW=4.2 kVAr=1.05276668714737 kV=0.240 Basefreq=60 Model=1 Vminpu=0.95 Vmaxpu=1.05 status=variable daily=7950246258_2
New Load.1000882052_2 Phases=1 Bus=SEP720623.2.0 kW=6.9 kVAr=1.72932226904164 kV=0.240 Basefreq=60 Model=1 Vminpu=0.95 Vmaxpu=1.05 status=variable daily=1000882052_2
New Load.3831088091_2 Phases=1 Bus=SEP805002.3.0 kW=2.196 kVAr=0.550449415765815 kV=0.240 Basefreq=60 Model=1 Vminpu=0.95 Vmaxpu=1.05 status=variable daily=3831088091_2
New Load.8240150864_2 Phases=1 Bus=SEP893883.1.0 kW=4.79 kVAr=1.20053762777983 kV=0.240 Basefreq=60 Model=1 Vminpu=0.95 Vmaxpu=1.05 status=variable daily=8240150864_2
New Load.7660571709_2 Phases=1 Bus=SEP550815.3.0 kW=6.58 kVAr=1.65074038294922 kV=0.240 Basefreq=60 Model=1 Vminpu=0.95 Vmaxpu=1.05 status=variable daily=7660571709_2
New Load.1070804376_2 Phases=1 Bus=SEP664348.3.0 kW=5.237 kVAr=1.31284472565311 kV=0.240 Basefreq=60 Model=1 Vminpu=0.95 Vmaxpu=1.05 status=variable daily=1070804376_2
New Load.5780096602_2 Phases=1 Bus=SEP666579.2.0 kW=4.422 kVAr=1.10880010274136 kV=0.240 Basefreq=60 Model=1 Vminpu=0.95 Vmaxpu=1.05 status=variable daily=5780096602_2
New Load.2850220533_2 Phases=1 Bus=SEP1081732.3.0 kW=2.22 kVAr=0.55641468010958 kV=0.240 Basefreq=60 Model=1 Vminpu=0.95 Vmaxpu=1.05 status=variable daily=2850220533_2
New Load.3840237162_2 Phases=1 Bus=SEP974135.3.0 kW=7.547 kVAr=1.89152915996883 kV=0.240 Basefreq=60 Model=1 Vminpu=0.95 Vmaxpu=1.05 status=variable daily=3840237162_2
New Load.8141336760_2 Phases=1 Bus=SEP1195327.3.0 kW=4.36799999999999 kVAr=1.58528985469502 kV=0.240 Basefreq=60 Model=1 Vminpu=0.95 Vmaxpu=1.05 status=variable daily=8141336760_2
New Load.3472353374_2 Phases=1 Bus=SEP1995659.1.0 kW=4.79 kVAr=1.7383444486544 kV=0.240 Basefreq=60 Model=1 Vminpu=0.95 Vmaxpu=1.05 status=variable daily=3472353374_2
New Load.3411009557_2 Phases=1 Bus=SEP549274.1.0 kW=5.25 kVAr=1.31580220833485 kV=0.240 Basefreq=60 Model=1 Vminpu=0.95 Vmaxpu=1.05 status=variable daily=3411009557_2
New Load.7301267970_2 Phases=1 Bus=SEP698033.1.0 kW=4.53 kVAr=1.13537791687689 kV=0.240 Basefreq=60 Model=1 Vminpu=0.95 Vmaxpu=1.05 status=variable daily=7301267970_2
New Load.5001006740_2 Phases=1 Bus=SEP961678.1.0 kW=4.05 kVAr=1.01507604573525 kV=0.240 Basefreq=60 Model=1 Vminpu=0.95 Vmaxpu=1.05 status=variable daily=5001006740_2
New Load.3340209447_2 Phases=1 Bus=SEP698043.1.0 kW=2.76 kVAr=0.691784128643295 kV=0.240 Basefreq=60 Model=1 Vminpu=0.95 Vmaxpu=1.05 status=variable daily=3340209447_2
New Load.7781039080_2 Phases=1 Bus=SEP89983.3.0 kW=0.94 kVAr=0.23573252235548 kV=0.240 Basefreq=60 Model=1 Vminpu=0.95 Vmaxpu=1.05 status=variable daily=7781039080_2
New Load.7260224670_2 Phases=1 Bus=SEP682154.1.0 kW=0.17 kVAr=0.0427036025985457 kV=0.240 Basefreq=60 Model=1 Vminpu=0.95 Vmaxpu=1.05 status=variable daily=7260224670_2
New Load.4581081181_2 Phases=1 Bus=SEP90534.3.0 kW=6.66 kVAr=1.66921982076558 kV=0.240 Basefreq=60 Model=1 Vminpu=0.95 Vmaxpu=1.05 status=variable daily=4581081181_2
New Load.0270950011_2 Phases=1 Bus=SEP761921.2.0 kW=2.02 kVAr=0.732611449148895 kV=0.240 Basefreq=60 Model=1 Vminpu=0.95 Vmaxpu=1.05 status=variable daily=0270950011_2
New Load.8861220224_2 Phases=1 Bus=SEP1081784.3.0 kW=3.73 kVAr=0.934898208955415 kV=0.240 Basefreq=60 Model=1 Vminpu=0.95 Vmaxpu=1.05 status=variable daily=8861220224_2
New Load.3476078472_2 Phases=1 Bus=SEP1995654.1.0 kW=3.925 kVAr=1.42441708241465 kV=0.240 Basefreq=60 Model=1 Vminpu=0.95 Vmaxpu=1.05 status=variable daily=3476078472_2
New Load.8301047095_2 Phases=1 Bus=SEP855680.2.0 kW=5.65 kVAr=1.52243512386848 kV=0.240 Basefreq=60 Model=1 Vminpu=0.95 Vmaxpu=1.05 status=variable daily=8301047095_2
New Load.1810130208_2 Phases=1 Bus=SEP920254.1.0 kW=0.14 kVAr=0.035780525952192 kV=0.240 Basefreq=60 Model=1 Vminpu=0.95 Vmaxpu=1.05 status=variable daily=1810130208_2
New Load.3479005497_2 Phases=1 Bus=SEP2040617.3.0 kW=3.19 kVAr=1.15760412276316 kV=0.240 Basefreq=60 Model=1 Vminpu=0.95 Vmaxpu=1.05 status=variable daily=3479005497_2
New Load.3471488600_2 Phases=1 Bus=Newbus_3471488600_2.3.0 kW=0.94 kVAr=0.237477335635941 kV=0.240 Basefreq=60 Model=1 Vminpu=0.95 Vmaxpu=1.05 status=variable daily=3471488600_2
New Load.1721310742_2 Phases=1 Bus=SEP481372.2.0 kW=3.17 kVAr=0.79461722886013 kV=0.240 Basefreq=60 Model=1 Vminpu=0.95 Vmaxpu=1.05 status=variable daily=1721310742_2
New Load.7890911907_2 Phases=1 Bus=SEP731858.2.0 kW=3.519 kVAr=0.881965802731705 kV=0.240 Basefreq=60 Model=1 Vminpu=0.95 Vmaxpu=1.05 status=variable daily=7890911907_2
New Load.2300005923_2 Phases=1 Bus=SEP888938.2.0 kW=3.16 kVAr=1.14648425266453 kV=0.240 Basefreq=60 Model=1 Vminpu=0.95 Vmaxpu=1.05 status=variable daily=2300005923_2
New Load.5691202083_2 Phases=1 Bus=SEP851293.1.0 kW=0.84 kVAr=0.304701221438128 kV=0.240 Basefreq=60 Model=1 Vminpu=0.95 Vmaxpu=1.05 status=variable daily=5691202083_2
New Load.6410171539_2 Phases=1 Bus=SEP838144.3.0 kW=4.898 kVAr=1.22762684306376 kV=0.240 Basefreq=60 Model=1 Vminpu=0.95 Vmaxpu=1.05 status=variable daily=6410171539_2
New Load.1450574301_2 Phases=1 Bus=SEP1081774.3.0 kW=4.04599999999999 kVAr=1.01406756390857 kV=0.240 Basefreq=60 Model=1 Vminpu=0.95 Vmaxpu=1.05 status=variable daily=1450574301_2
New Load.0790010535_2 Phases=1 Bus=SEP726813.3.0 kW=5.663 kVAr=1.42478372505321 kV=0.240 Basefreq=60 Model=1 Vminpu=0.95 Vmaxpu=1.05 status=variable daily=0790010535_2
New Load.6070640881_2 Phases=1 Bus=SEP824453.3.0 kW=0.36 kVAr=0.090516260389854 kV=0.240 Basefreq=60 Model=1 Vminpu=0.95 Vmaxpu=1.05 status=variable daily=6070640881_2
New Load.0480700024_2 Phases=1 Bus=SEP855696.3.0 kW=5.29 kVAr=1.32584495560415 kV=0.240 Basefreq=60 Model=1 Vminpu=0.95 Vmaxpu=1.05 status=variable daily=0480700024_2
New Load.6760711317_2 Phases=1 Bus=SEP663578.1.0 kW=3 kVAr=1.08871724377025 kV=0.240 Basefreq=60 Model=1 Vminpu=0.95 Vmaxpu=1.05 status=variable daily=6760711317_2
New Load.8770461810_2 Phases=1 Bus=SEP665455.2.0 kW=4.877 kVAr=1.76886531674923 kV=0.240 Basefreq=60 Model=1 Vminpu=0.95 Vmaxpu=1.05 status=variable daily=8770461810_2
New Load.1011038431_2 Phases=1 Bus=SEP458599.3.0 kW=3.36 kVAr=0.842160785005245 kV=0.240 Basefreq=60 Model=1 Vminpu=0.95 Vmaxpu=1.05 status=variable daily=1011038431_2