
!TimeSeriesDef
New LoadShape.6850845215_2 Npts=24 Interval=1 PMult=(0.157716759096443 0.299607737048559 0.300148789395374 0.291491951846341 0.195590423373461 0.135127823616935 0.121601514946571 0.117814148518869 0.288786690112268 0.133775192749899 0.0353036656296497 0.040037873664277 0.05315839307453 0.0639794400108211 0.0704720681725957 0.111592046530502 0.140267820911673 0.609495468686595 0.368050858920601 0.335722981198431 0.352766130123089 0.178682537535507 0.0551873393750845 0.0374678750169079) Qmult=(0.204953060855115 0.086398680703496 0.105906220283362 0.0539906216440602 0.0349639493762356 0.175528900186721 0.0217678965492699 0.0210693206889198 0.0515925966697596 0.023910661688862 0.00633016596824286 0.00717729311475935 0.00952306671467325 0.0837791117189922 0.0126019999248274 0.0200089733438173 0.182412202582118 0.108900455329314 0.241969151621254 0.0603230906849981 0.0659600515661908 0.213059253657512 0.015103756545079 0.0489178235731633)
New LoadShape.4560074609_2 Npts=24 Interval=1 PMult=(0.292356185973207 0.756238508011558 0.754662463882322 0.744155503020751 0.566587864460205 0.173890202258997 0.236143945363804 0.198318886262149 0.204360388757552 0.44234305227213 0.219070133963751 0.157079064880483 0.0958760178618335 0.0753874441817704 0.0772261623325453 0.0953506698187549 0.0937746256895193 0.092461255581823 0.274757026530076 0.281323877068558 0.244812188074599 0.224060940372997 0.20514841082217 0.167323351720515) Qmult=(0.0537410253662608 0.143961126376714 0.136123266106169 0.134029503044032 0.101257196336488 0.0312138756708485 0.0440869249590379 0.0360043178479881 0.265065292720905 0.0791980748309522 0.0395209810418301 0.0282787515929576 0.0180619002705925 0.0135485122744321 0.0138780527495604 0.0176151712284911 0.0169786125032828 0.0167168528043865 0.0492872265312125 0.0505828868200887 0.0444928253031694 0.040524824712708 0.0418596424787686 0.0302131164597378)
New LoadShape.1731190745_2 Npts=24 Interval=1 PMult=(0.0394736842105263 0.0413533834586466 0.0413533834586466 0.0357142857142857 0.0338345864661654 0.0921052631578947 0.133458646616541 0.180451127819549 0.0319548872180451 0.0300751879699248 0.0300751879699248 0.0357142857142857 0.0526315789473684 0.0432330827067669 0.0451127819548872 0.0319548872180451 0.0770676691729323 0.0488721804511278 0.056390977443609 0.0733082706766917 0.0413533834586466 0.490601503759398 0.0526315789473684 0.0526315789473684) Qmult=(0.00661836633951252 0.00696630694222505 0.00701411644775066 0.00598183895493381 0.00558317922313696 0.0151448928717231 0.022276678951054 0.217350196176037 0.0384440470243835 0.0361747171412492 0.0361711931796917 0.042966063058793 0.0633247813759668 0.00712685893050418 0.00742846278421902 0.0381283051828235 0.0127039965800055 0.00806950755847669 0.00955142821163832 0.0121830106183361 0.00752230232229631 0.0805824638533361 0.00886982776688381 0.00878068777929484)
New LoadShape.1310458729_2 Npts=24 Interval=1 PMult=(0.0724312184166199 0.0743028261276436 0.0576455174995321 0.0771102376941793 0.0728055399588246 0.162642710087966 0.228523301516002 0.142616507580011 0.184914841849148 0.110424854950402 0.111173498034812 0.088901366273629 0.11734980348119 0.140370578326783 0.134194272880404 0.128579449747333 0.0956391540333146 0.12202882275875 0.135878719820326 0.126146359723002 0.203630918959386 0.284110050533408 0.138686131386861 0.0920830993823695) Qmult=(0.0134069535114396 0.0190529598473288 0.0112006809591026 0.0143624858872532 0.0134580216187219 0.0293459272660863 0.0410894714962565 0.0289476725913991 0.0366234753262207 0.144619756226671 0.145608587171294 0.116382776688637 0.153623412409001 0.0254149169906875 0.174336993786155 0.168173388456789 0.0176470388240822 0.0219955251410444 0.024625901048749 0.0228139986220755 0.0366347522709696 0.0509119769304961 0.0250550807387633 0.0165854411502004)
New LoadShape.8590408755_2 Npts=24 Interval=1 PMult=(0.12183908045977 0.167816091954023 0.0735632183908046 0.0689655172413793 0.071264367816092 0.0689655172413793 0.151724137931034 0.172413793103448 0.0735632183908046 0.064367816091954 0.151724137931034 0.064367816091954 0.0942528735632184 0.0666666666666667 0.064367816091954 0.064367816091954 0.0666666666666667 0.0689655172413793 0.064367816091954 0.151724137931034 0.064367816091954 0.271264367816092 0.0551724137931034 0.0528735632183908) Qmult=(0.0218800143781632 0.0302431838605095 0.0134064570660916 0.0878916333364634 0.0933903004206236 0.0126539832200332 0.197187737233215 0.22596511021604 0.0964022044272975 0.0843405134302361 0.19889749714138 0.0843289578633337 0.123544203576934 0.0874027150365635 0.0843795919146254 0.0810366538783536 0.0860342287760835 0.0903045263088257 0.0123256054825613 0.027677641440084 0.0122189938473986 0.0491173251856125 0.0721742616161345 0.00946515119138562)
New LoadShape.9770183061_2 Npts=24 Interval=1 PMult=(0.333333333333333 0.666666666666667 0.333333333333333 0.666666666666667 0.333333333333333 0.666666666666667 0.333333333333333 0.666666666666667 0.333333333333333 0.666666666666667 0.333333333333333 0.666666666666667 0.333333333333333 0.666666666666667 0.333333333333333 0.333333333333333 0.666666666666667 0.333333333333333 0.666666666666667 0.333333333333333 0.666666666666667 0.333333333333333 0.666666666666667 0.333333333333333) Qmult=(0.310796629898616 0.626199530477645 0.310587793548663 0.626032526005759 0.313960165637194 0.619299791481932 0.285827647181017 0.579392012774803 0.294892450899408 0.615835523017439 0.302368411966269 0.61837489100991 0.300650819831882 0.594054972001861 0.311934016540244 0.28909177182813 0.612438125058894 0.260524174208862 0.625710121186925 0.310077040114281 0.625776283652052 0.309666372246665 0.625504027771335 0.313538673202038)
New LoadShape.2131134571_2 Npts=24 Interval=1 PMult=(0.122448979591837 0.117006802721088 0.119727891156463 0.122448979591837 0.119727891156463 0.115646258503401 0.118367346938776 0.12108843537415 0.117006802721088 0.126530612244898 0.214965986394558 0.115646258503401 0.0693877551020408 0.0870748299319728 0.072108843537415 0.138775510204082 0.0829931972789116 0.126530612244898 0.159183673469388 0.189115646258503 0.129251700680272 0.131972789115646 0.123809523809524 0.172789115646259) Qmult=(0.095627374733089 0.091478461549037 0.107748410773345 0.0501936583069288 0.0147925633162889 0.104297288294925 0.107057138935628 0.10770611672783 0.0147317834920621 0.0233812837311563 0.026903455805404 0.0164499577901104 0.0626347054623826 0.010784346156014 0.00891041876837764 0.0172834623054043 0.0102875851696297 0.0156397052218314 0.0197219330696042 0.0234236305912392 0.0160662825778104 0.0163227951293475 0.015411199862486 0.0213552205179929)
New LoadShape.3460276427_2 Npts=24 Interval=1 PMult=(0.113513513513514 0.118918918918919 0.118918918918919 0.108108108108108 0.113513513513514 0.151351351351351 0.132432432432432 0.105405405405405 0.45945945945946 0.121621621621622 0.113513513513514 0.108108108108108 0.121621621621622 0.151351351351351 0.110810810810811 0.110810810810811 0.118918918918919 0.116216216216216 0.135135135135135 0.191891891891892 0.213513513513514 0.202702702702703 0.17027027027027 0.124324324324324) Qmult=(0.028701833535049 0.121407664832772 0.152657545558516 0.0246246984444103 0.0202684150714791 0.190405806839811 0.172506124267018 0.0233237948018558 0.0823470013224974 0.0236915752787866 0.0211361459499475 0.0308037605720375 0.158251816318219 0.0270508026051462 0.0197654187046662 0.0202433586428038 0.0212994137542969 0.0207705971866711 0.0242960536627317 0.0344161127038476 0.0383647619423038 0.0361947276498179 0.0306484582587957 0.0222352283835688)
New LoadShape.5970105378_2 Npts=24 Interval=1 PMult=(0.0726828184040898 0.442542787286064 0.568126250277839 0.171593687486108 0.0426761502556124 0.0431206934874417 0.0431206934874417 0.0480106690375639 0.145143365192265 0.100466770393421 0.094020893531896 0.0604578795287842 0.0526783729717715 0.0437875083351856 0.0426761502556124 0.0760168926428095 0.0873527450544565 0.0915759057568349 0.108690820182263 0.123805290064459 0.122693931984886 0.122027117137142 0.126917092687264 0.0786841520337853) Qmult=(0.0131511657721854 0.0850801835161337 0.101547274088414 0.0308947375085561 0.00768252978004271 0.00779150175546134 0.00783780975857604 0.00864999958005969 0.0260026615668878 0.0180974175180841 0.0169102663744884 0.0110625061213208 0.0114322175307916 0.0573190380305889 0.00778341059464785 0.0991776734789535 0.0157859593127613 0.0165691925560892 0.0197509857303943 0.0223965735943144 0.0223673493728359 0.0234652909326584 0.0359278646967523 0.0141374639785888)
New LoadShape.8640885161_2 Npts=24 Interval=1 PMult=(0.0705705705705706 0.0645645645645646 0.0645645645645646 0.0825825825825826 0.0945945945945946 0.186186186186186 0.0675675675675676 0.0765765765765766 0.0570570570570571 0.0495495495495495 0.051051051051051 0.0285285285285285 0.0405405405405405 0.042042042042042 0.0690690690690691 0.10960960960961 0.105105105105105 0.126126126126126 0.156156156156156 0.172672672672673 0.162162162162162 0.159159159159159 0.114114114114114 0.045045045045045) Qmult=(0.0139286814860982 0.0758853935182028 0.051000070469116 0.0151002419879027 0.0169231211418178 0.0335440890319167 0.08824167408087 0.0142266887693423 0.0435068746966663 0.0648293015574126 0.0668319015593179 0.037236588955051 0.0530730683950266 0.0550596784236988 0.0123584160736784 0.142619412337369 0.0189643426686052 0.0226298901060164 0.203190590988731 0.0345419513715294 0.10684865144953 0.0287258803262179 0.021779079225115 0.00835886059974076)
New LoadShape.6880058204_2 Npts=24 Interval=1 PMult=(0.0665236051502146 0.0965665236051502 0.0858369098712446 0.0987124463519313 0.0879828326180258 0.358369098712446 0.199570815450644 0.199570815450644 0.298283261802575 0.141630901287554 0.0901287553648069 0.0429184549356223 0.0515021459227468 0.0536480686695279 0.240343347639485 0.103004291845494 0.0987124463519313 0.233905579399142 0.255364806866953 0.354077253218884 0.313304721030043 0.0987124463519313 0.124463519313305 0.246781115879828) Qmult=(0.00831519349464171 0.0121789368829757 0.0196051262820287 0.015816514320973 0.0108741171849887 0.321931949762147 0.0254547418799864 0.180660805615622 0.270065840755164 0.128208416810536 0.0815526930538064 0.0381241537502018 0.0464259542574692 0.0335185091685563 0.0296613098566054 0.0929852063048634 0.0122471020816455 0.0289133423788615 0.229852965564707 0.0437436656922233 0.0390626187933655 0.012564405238655 0.0159317410600132 0.0304968955640721)
New LoadShape.6071262824_2 Npts=24 Interval=1 PMult=(0.101529450048812 0.118125610152945 0.10868857793687 0.115196876016922 0.116498535632932 0.103156524568825 0.124959323137 0.0891636836967133 0.0894890986007159 0.0885128538887081 0.0826553856166612 0.124633908232997 0.130816791409047 0.139277578913114 0.139928408721119 0.129840546697039 0.144809632281158 0.109339407744875 0.145785876993166 0.176374877969411 0.160754962577286 0.176700292873414 0.171493654409372 0.11877643996095) Qmult=(0.117001894120067 0.153831415816943 0.139797212722668 0.149123629519196 0.152593707629668 0.134901742278273 0.0224311663955587 0.0159903515993544 0.016083081416058 0.0159620110787627 0.0149679278954327 0.0225472044829793 0.0235930625962944 0.182317235307858 0.183391481258678 0.0234749538520916 0.189414415558984 0.14236671211948 0.0265106866670153 0.0319176461123342 0.0296562097506123 0.0318388878620517 0.0320798084653541 0.0219570552203196)
New LoadShape.3470780735_2 Npts=24 Interval=1 PMult=(0.152542372881356 0.104116222760291 0.101694915254237 0.101694915254237 0.101694915254237 0.101694915254237 0.196125907990315 0.128329297820823 0.138014527845036 0.12590799031477 0.128329297820823 0.101694915254237 0.0895883777239709 0.0944309927360775 0.193704600484261 0.808716707021792 0.404358353510896 0.949152542372881 0.152542372881356 0.200968523002421 0.193704600484261 0.205811138014528 0.181598062953995 0.181598062953995) Qmult=(0.0293744226476878 0.0220641415603019 0.0217357260223571 0.0191158046238458 0.0182254853591412 0.0200738835191631 0.035997975570011 0.0233284853121752 0.0251616392340878 0.0244211903088664 0.025894561774505 0.021059243136355 0.0187148019021523 0.0180679777405512 0.0346103023731346 0.145092068027213 0.0724327651888159 0.169574256459109 0.0279488069101211 0.0364402155044446 0.0353960277093722 0.0372518923388927 0.0333191305632345 0.0327564395339394)
New LoadShape.3831211101_2 Npts=24 Interval=1 PMult=(0.124213836477987 0.259433962264151 0.561320754716981 0.542452830188679 0.393081761006289 0.111635220125786 0.125786163522013 0.364779874213836 0.139937106918239 0.117924528301887 0.0880503144654088 0.210691823899371 0.166666666666667 0.0943396226415094 0.0943396226415094 0.0911949685534591 0.0911949685534591 0.089622641509434 0.0959119496855346 0.119496855345912 0.113207547169811 0.114779874213836 0.111635220125786 0.10377358490566) Qmult=(0.0226035595620658 0.338266475602389 0.101084329618628 0.0971387224179627 0.0702141277709068 0.0202494005269066 0.0226985496472072 0.0651884797669076 0.0250672248471124 0.0211744603051561 0.0159309750806731 0.0377788843350895 0.0299102683358051 0.016909993809522 0.0168689526403323 0.0163676639489043 0.0163629866149208 0.0160558126927393 0.0174157033439722 0.0215119454416382 0.0204326482123295 0.0205932258500099 0.0201397817058331 0.0186326909242972)
New LoadShape.1000320380_2 Npts=24 Interval=1 PMult=(0.063872255489022 0.063872255489022 0.0598802395209581 0.0598802395209581 0.0598802395209581 0.0578842315369261 0.0538922155688623 0.103792415169661 0.0778443113772455 0.063872255489022 0.0838323353293413 0.063872255489022 0.0578842315369261 0.0479041916167665 0.0479041916167665 0.0499001996007984 0.0479041916167665 0.0479041916167665 0.0479041916167665 0.0459081836327345 0.0678642714570858 0.0439121756487026 0.0439121756487026 0.0439121756487026) Qmult=(0.0138620448262369 0.0785987350993074 0.0470598358495598 0.0781915196955946 0.0784858726678406 0.0755664999746382 0.0693375561822938 0.135927442903411 0.101989384609549 0.0836342716035803 0.109882467524882 0.08347359422574 0.0757916304449169 0.0626984779852125 0.0627779318133879 0.0652992512351908 0.0095369232619388 0.00994838470178216 0.0613603372128855 0.0594074631038852 0.0122859995928633 0.0551896557643129 0.0568367051317402 0.00791517315011444)
New LoadShape.2591131288_2 Npts=24 Interval=1 PMult=(0.0657596371882086 0.138321995464853 0.0430839002267574 0.0498866213151927 0.0408163265306122 0.0476190476190476 0.136054421768707 0.0929705215419501 0.292517006802721 0.993197278911565 0.825396825396825 0.0793650793650794 0.213151927437642 0.0770975056689342 0.090702947845805 0.0816326530612245 0.0839002267573696 0.0861678004535147 0.170068027210884 0.0929705215419501 0.0816326530612245 0.0929705215419501 0.0816326530612245 0.090702947845805) Qmult=(0.0150209799304209 0.0309323166993467 0.0130815068940154 0.0125588256027 0.00748778545461843 0.0107851863447162 0.0257893646694259 0.0172192891696816 0.052857732876778 0.195011987594509 0.863900262091842 0.0981378096319699 0.276578223701177 0.06150063975596 0.0162148147125034 0.0164214038028459 0.0152787078106005 0.0155539687622741 0.0308833191379898 0.0170656923205169 0.0152871038116449 0.0170150438983853 0.0154719340888691 0.0164319115845102)
New LoadShape.8232009263_2 Npts=24 Interval=1 PMult=(0.0926829268292683 0.0829268292682927 0.170731707317073 0.0780487804878049 0.0878048780487805 0.0975609756097561 0.0829268292682927 0.175609756097561 0.0682926829268293 0.0975609756097561 0.0585365853658536 0.0634146341463415 0.151219512195122 0.0634146341463415 0.0487804878048781 0.0634146341463415 0.0731707317073171 0.151219512195122 0.0780487804878049 0.0585365853658536 0.0780487804878049 0.0536585365853659 0.0682926829268293 0.126829268292683) Qmult=(0.0228875447514228 0.024411937642552 0.0413355560298962 0.0213866588924402 0.0160916147590615 0.0212315397211699 0.0179393392992378 0.0326750286180397 0.0136894810925368 0.0684830165304516 0.0447360136004548 0.0714539453989741 0.192818637764785 0.0770884306132781 0.00877171741471075 0.0151845519523495 0.0137024551122522 0.0273232299972073 0.0150753170541759 0.0114575267728977 0.0154153380569477 0.0104817833115208 0.0140746233176721 0.0231208345939038)
New LoadShape.7471040344_2 Npts=24 Interval=1 PMult=(0.102441762559641 0.111001964636542 0.108335672186361 0.103424080830761 0.100336794835813 0.115632893628964 0.125035082795398 0.102301431378053 0.109037328094303 0.0990738142015163 0.0944428852090941 0.107774347460006 0.111142295818132 0.0983721582935735 0.099775470109459 0.100196463654225 0.0927589110300315 0.0980914959303964 0.124052764524277 0.156609598652822 0.149312377210217 0.147628403031155 0.139208532135842 0.119562166713445) Qmult=(0.0887360612466935 0.0258624385340653 0.0156734432039268 0.0138827913705755 0.0124125359155107 0.104371036379741 0.0158645549579662 0.0925646082662263 0.0134835766089426 0.0122846827732582 0.0117421914426091 0.0133138819311488 0.0137300195364604 0.0121698332885754 0.0123174691851843 0.0123868692657046 0.0114864996056648 0.0121402470398689 0.0157713046241278 0.0193964833922418 0.0188656494788361 0.0182423683233035 0.0172226105254843 0.10821283570837)
New LoadShape.1290613660_2 Npts=24 Interval=1 PMult=(0.647849462365591 0.18010752688172 0.17741935483871 0.174731182795699 0.174731182795699 0.147849462365591 0.161290322580645 0.17741935483871 0.172043010752688 0.158602150537634 0.137096774193548 0.158602150537634 0.169354838709677 0.301075268817204 0.483870967741935 0.268817204301075 0.161290322580645 0.155913978494624 0.244623655913979 0.400537634408602 0.387096774193548 0.354838709677419 0.344086021505376 0.338709677419355) Qmult=(0.1159342575632 0.0328076627949427 0.131808557197112 0.0333313915938233 0.228369926821494 0.0268813185198007 0.207432426136442 0.228652844347453 0.224793294217704 0.207698709457143 0.179555263467086 0.20762471949816 0.221774523492026 0.0541284331419424 0.634331912105241 0.0518459833783319 0.0698403121859394 0.0953549806442721 0.0453726505874564 0.072123583943065 0.0693733274979852 0.0635364323816468 0.0622641075003363 0.443790015702027)
New LoadShape.5921227695_2 Npts=24 Interval=1 PMult=(0.0319809069212411 0.0165871121718377 0.0168257756563246 0.0168257756563246 0.0167064439140811 0.0170644391408115 0.0181384248210024 0.0177804295942721 0.0183770883054893 0.0170644391408115 0.0219570405727924 0.0221957040572792 0.0175417661097852 0.0301909307875895 0.0212410501193317 0.0217183770883055 0.0206443914081146 0.0217183770883055 0.0163484486873508 0.0344868735083532 0.0366348448687351 0.034964200477327 0.0369928400954654 0.0367541766109785) Qmult=(0.0409895503362996 0.0185191540328497 0.0215024128106803 0.0216537386134303 0.0218648866443356 0.0220209733922831 0.00331100610431459 0.00321930603163366 0.00332183314503874 0.00310860707153664 0.00399383257241014 0.00411449103610849 0.00318888701597219 0.0394779223076266 0.0278334236012803 0.00411421003446217 0.0265448696561002 0.00439609583690076 0.0032510763041218 0.00640962758371975 0.00678359490872436 0.00638339838125617 0.0067987020649223 0.00664047701106336)
New LoadShape.9020221867_2 Npts=24 Interval=1 PMult=(0.102803738317757 0.107476635514019 0.616822429906542 0.130841121495327 0.102803738317757 0.158878504672897 0.574766355140187 0.121495327102804 0.102803738317757 0.11214953271028 0.088785046728972 0.0841121495327103 0.0981308411214953 0.0841121495327103 0.0981308411214953 0.602803738317757 0.294392523364486 0.158878504672897 0.11214953271028 0.0841121495327103 0.116822429906542 1.66822429906542 0.196261682242991 0.200934579439252) Qmult=(0.0129870386227478 0.0962224712702723 0.0815578262933494 0.117959468677485 0.0128822633636281 0.143754908687825 0.072997968751482 0.0157355683715324 0.013654371832368 0.101398857152615 0.0803227116850904 0.075555100621753 0.0887851507021879 0.0761461437156219 0.0122767107991054 0.545473579639961 0.266432179895949 0.0215151308932161 0.0144766573930647 0.0111422163114871 0.0157715378065066 0.20590061767371 0.0266191266951514 0.18194130163659)
New LoadShape.4040189338_2 Npts=24 Interval=1 PMult=(0.0460526315789474 0.144736842105263 0.0460526315789474 0.0361842105263158 0.0460526315789474 0.0394736842105263 0.0394736842105263 0.0296052631578947 0.0296052631578947 0.0394736842105263 0.131578947368421 0.0361842105263158 0.0131578947368421 0.0230263157894737 0.0131578947368421 0.0230263157894737 0.0131578947368421 0.0230263157894737 0.0197368421052632 0.0263157894736842 0.154605263157895 0.0197368421052632 0.0328947368421053 0.0230263157894737) Qmult=(0.00617503551129058 0.0181640255700782 0.0062809761866967 0.00587502336962615 0.0414197954067419 0.00496141092186755 0.0344888158628198 0.0266438087731176 0.026509134845912 0.0355622014752199 0.118606896299988 0.0180952505489805 0.011652585773261 0.0208233880786272 0.00166633150294585 0.0134270769946362 0.00186063018102793 0.00299382495527524 0.00281703533383272 0.00368451738016495 0.0193994322367394 0.00305332442150216 0.00469798516441506 0.00295963084773096)
New LoadShape.3110225982_2 Npts=24 Interval=1 PMult=(0.141323792486584 0.11295681063123 0.153846153846154 0.107078967544084 0.119345770508562 0.147201635573729 0.136979299769997 0.186557628418093 0.352926143623818 0.436749297214415 0.239713774597496 0.458982877587529 0.338870431893689 0.283669818553539 0.294658829542551 0.265780730897009 0.205724508050089 0.202402248913877 0.210835675951956 0.186557628418094 0.294147712752363 0.289292103245592 0.149757219524661 0.143879376437516) Qmult=(0.0298986955740299 0.0212584688216678 0.0308453866326962 0.0296594520818979 0.156315536040974 0.0269942654229311 0.0249922986209389 0.0336148987559467 0.0633321386528382 0.0781977147335172 0.310726986373636 0.154105078743389 0.0609326075923233 0.051570734117835 0.386283728516378 0.048260413131373 0.268602817306656 0.0524820194455801 0.0385550779308632 0.0344278130101357 0.0540460924740729 0.0520054543179207 0.0277348364040148 0.0259698125859261)
New LoadShape.4591311874_2 Npts=24 Interval=1 PMult=(0.107132626754512 0.124892580922372 0.122028072185621 0.112288742480665 0.109710684617588 0.121741621311945 0.12030936694357 0.095101690060155 0.191635634488684 0.116012603838442 0.121741621311945 0.101403609281009 0.121741621311945 0.130621598395875 0.130048696648525 0.106559725007162 0.119736465196219 0.119736465196219 0.121168719564595 0.188484674878257 0.235176167287309 0.295330850759096 0.275279289601833 0.124606130048697) Qmult=(0.0133422953312946 0.0159034310629288 0.0160841659718988 0.0155618526789962 0.0135779169307863 0.0360096854142131 0.0149683273837887 0.0118089623773815 0.0237235359098614 0.103341217802107 0.1101472033083 0.0127167235118803 0.110000879396243 0.118140206614032 0.0160892786217274 0.013481356357551 0.018561863560412 0.014881533407836 0.0152571632267945 0.0236382564926725 0.029456380625783 0.0365869733831797 0.0346448291916765 0.112805314118598)
New LoadShape.7670784856_2 Npts=24 Interval=1 PMult=(0.088023088023088 0.10410224695939 0.127602556173985 0.110286538857967 0.0993609565038136 0.0886415172129458 0.12987012987013 0.239332096474954 0.177901463615749 0.200164914450629 0.220779220779221 0.158730158730159 0.145949288806432 0.191094619666048 0.229437229437229 0.244691816120388 0.240981240981241 0.188414759843331 0.215419501133787 0.203875489589775 0.203257060399918 0.178726035868893 0.170480313337456 0.119562976705834) Qmult=(0.111620866099999 0.135786901067334 0.165375810978567 0.14264340098823 0.130144355376643 0.115654475634546 0.0232696769200547 0.0427670713396856 0.0318162256901184 0.0358079919873594 0.0395150878814016 0.028475492268805 0.0261426539201081 0.24907060707027 0.300626024047419 0.043815092749179 0.315436772919339 0.0939830629363979 0.0387958152655952 0.0367466172763437 0.0367813864504457 0.0321297633824456 0.0307796383244079 0.021564970509837)
New LoadShape.1390127364_2 Npts=24 Interval=1 PMult=(0.158102766798419 0.142292490118577 0.0671936758893281 0.138339920948617 0.0632411067193676 0.0632411067193676 0.268774703557312 0.422924901185771 0.387351778656126 0.0671936758893281 0.0553359683794466 0.0671936758893281 0.0513833992094862 0.138339920948617 0.173913043478261 0.268774703557312 0.41897233201581 0.264822134387352 0.150197628458498 0.193675889328063 0.442687747035573 0.351778656126482 0.885375494071146 0.50197628458498) Qmult=(0.029617702580065 0.0262357792034245 0.0169957901017482 0.0256371505628608 0.0113725766299904 0.0757197581353915 0.0492856084632949 0.0757513970288451 0.0696093923173398 0.0127822656674658 0.0148160357306414 0.0173561091243477 0.00959118572708743 0.024922306160385 0.031103456117457 0.0483058116288198 0.0750083033403417 0.0474167965173835 0.0273779675173302 0.0349305198714208 0.0795829688776378 0.0631975731981571 0.158468551544083 0.0897388898994482)
New LoadShape.9360976972_2 Npts=24 Interval=1 PMult=(0.352233676975945 0.414089347079038 0.419243986254295 0.407216494845361 0.402061855670103 0.396907216494845 0.402061855670103 0.40893470790378 0.439862542955326 0.422680412371134 0.450171821305842 0.676975945017182 0.410652920962199 0.716494845360825 0.5 0.383161512027491 0.154639175257732 0.335051546391753 0.400343642611684 0.20446735395189 0.192439862542955 0.501718213058419 0.127147766323024 0.123711340206186) Qmult=(0.0643524843371094 0.0758018198535727 0.0806879617592191 0.0742208342806935 0.527160346681051 0.0710321355638596 0.526988520532279 0.533809940858857 0.576602933316531 0.554112900041473 0.590129687533964 0.886314629300056 0.535307810431343 0.128008362875834 0.655616267614344 0.0687125623284994 0.0277306187296151 0.0601445906692723 0.0718859407829648 0.0369188095440986 0.0345333359118523 0.0897286741516732 0.0234427093470703 0.0221818606964688)
New LoadShape.9721006925_2 Npts=24 Interval=1 PMult=(0.129267878376083 0.140309155766944 0.13487344997452 0.117207406149142 0.119075930015288 0.144385935111262 0.130287073212162 0.145914727365381 0.0852726346186513 0.0781382707660948 0.0548666553422796 0.0708340411075251 0.0744012230338033 0.085102768812638 0.141498216409037 0.233225751656192 0.162221844742653 0.160013589264481 0.173772719551554 0.173093256327501 0.19500594530321 0.180397485986071 0.183624936300323 0.112790895192798) Qmult=(0.168953885321118 0.183437100935096 0.175029498366177 0.15284791631167 0.156112301809879 0.189318308749914 0.17049485908158 0.191027911667442 0.0155380338226095 0.100449086787875 0.0715040936751174 0.0927144436909836 0.0969999928809685 0.017554820336895 0.185409934806997 0.305405918543698 0.212259638553595 0.0322269722588195 0.227342461408648 0.0586775085640421 0.251721997916267 0.032283845896152 0.0329657636357527 0.147563625679463)
New LoadShape.1551122655_2 Npts=24 Interval=1 PMult=(0.25 0.208333333333333 0.214285714285714 0.196428571428571 0.238095238095238 0.232142857142857 0.285714285714286 0.529761904761905 1.0952380952381 0.839285714285714 0.440476190476191 0.398809523809524 0.321428571428571 0.297619047619048 0.315476190476191 0.345238095238095 0.327380952380952 0.333333333333333 0.321428571428571 0.291666666666667 0.422619047619048 0.470238095238095 0.452380952380952 0.261904761904762) Qmult=(0.226272920821415 0.188506141409972 0.193940309181395 0.177739349019044 0.215608621515612 0.21020306002037 0.25868023297089 0.479749779790499 0.991929024469349 0.760126500806798 0.398897280334216 0.36116929184187 0.291066356822728 0.269493855650347 0.285655923956803 0.312611376257464 0.296381979376931 0.301739853089289 0.290927192075663 0.263959625395243 0.38254674272724 0.42569183397043 0.409524696201959 0.237151557597976)
New LoadShape.8830773597_2 Npts=24 Interval=1 PMult=(0.120281509916827 0.122840690978887 0.112603966730646 0.115802943058221 0.121347835359352 0.123267221155897 0.116869268500746 0.106419279164001 0.110684580934101 0.146513115802943 0.135636596289187 0.161868202175304 0.128598848368522 0.115589677969716 0.134570270846662 0.129451908722542 0.134996801023672 0.284495628065686 0.373427169972276 0.35572616762636 0.359351674130945 0.28001706120708 0.115376412881211 0.105779483898486) Qmult=(0.108860570648705 0.111158148117463 0.101914322533211 0.104796358916586 0.109882569804675 0.111613187550061 0.105798791910419 0.096342918473397 0.100202006032428 0.132668229337466 0.122816376884595 0.146580470466013 0.116441295369119 0.104657357962608 0.121837607326493 0.117204217388894 0.122197643147294 0.257575301144268 0.338108394907949 0.322071204445935 0.3253303108155 0.253492045822802 0.104380876983596 0.0957695617672608)
New LoadShape.8930968776_2 Npts=24 Interval=1 PMult=(1.28436018957346 1.85781990521327 0.838862559241706 1.45023696682464 0.658767772511848 1.66350710900474 0.786729857819905 1.32227488151659 1.06635071090047 0.521327014218009 1.05687203791469 0.298578199052133 0.947867298578199 0.312796208530806 0.33175355450237 1.18957345971564 0.767772511848341 0.744075829383886 1.48815165876777 0.848341232227488 1.46919431279621 0.924170616113744 1.32701421800948 1.04265402843602) Qmult=(1.16307267249476 1.6823122387327 0.759606362867923 1.31326173053655 0.596590535927214 1.50652959941811 0.712442358043644 1.19748513504551 0.965703313745649 0.472109916582869 0.957139407696715 0.270379925308731 0.858417209994537 0.283246018412157 0.300409675102179 1.0773052403792 0.69526351468833 0.673759840630886 1.34757457588619 0.76814320387867 1.33033582801314 0.836823841654577 1.20162942518043 0.944249418688215)