New Loadshape.Ld705505 Npts=24 Interval=1 PMult=(0.09058145440607168, 0.08474928853647865, 0.09948723561342104, 0.1464016368795268, 0.17559980791673932, 0.1775930325408207, 0.19815784826538185, 0.13025932273336382, 0.10556123301447566, 0.08479479367531487, 0.0701212994893602, 0.10998994645225008, 0.07400014830951925, 0.17762885819283514, 0.17710644497136968, 0.09670218680230637, 0.11526070690828419, 0.17411884625099375, 0.1759124152650743, 0.16769768282099426, 0.1792414635171449, 0.15695038634317146, 0.1300306197760068, 0.08099069638295897) Qmult=(0.01675448631335143, 0.015525963963207394, 0.01816605396613989, 0.026548627714129438, 0.03163960608025623, 0.03206542246752445, 0.035726222210819225, 0.023467641134442194, 0.019048173122385707, 0.015364049326626491, 0.012861802781003299, 0.02062851537346697, 0.024247747766358727, 0.10451283199783651, 0.03189568079866967, 0.01749185437555667, 0.02088844105423331, 0.03139110538004813, 0.0318016799606636, 0.03034191757506138, 0.03242963057611509, 0.028326793886813764, 0.023541782258524387, 0.014626422835908913)
New Loadshape.Ld667713 Npts=24 Interval=1 PMult=(0.07014190222387574, 0.07425019268763539, 0.0660435949180492, 0.06315742562289176, 0.06365079887686187, 0.08627334904815367, 0.2916157923812802, 0.30581391492745985, 0.42280834966908193, 0.36743366443632486, 0.3344500639490935, 0.22791406402237624, 0.11628742865500682, 0.12882686985986433, 0.11619510826797427, 0.19468875732311544, 0.17123886756255774, 0.19806645540198398, 0.262884559423211, 0.3056425365770477, 0.29614242905722926, 0.12981472191222446, 0.12424088253841382, 0.07356215743475589) Qmult=(0.013041039935238844, 0.014007808461844238, 0.012318408229844284, 0.011893094268063521, 0.011627336006245288, 0.0157853047068423, 0.3477390528235252, 0.3941494474008709, 0.5453029062933239, 0.4764971014009495, 0.432055961944877, 0.2966979371983622, 0.15227551341555165, 0.023460193890076936, 0.021249239234710133, 0.25047559700320143, 0.05530268660201364, 0.03605051140394016, 0.04889453080013376, 0.055942068526844, 0.053931869235122484, 0.02382517454767001, 0.02294607798240719, 0.013450421636142943)
New Loadshape.Ld667173 Npts=24 Interval=1 PMult=(0.19151323506910806, 0.12770949150813496, 0.09057989493548234, 0.0606416075891263, 0.057530473810373864, 0.07272912735247626, 0.09297699801091441, 0.15560769113071862, 0.12566940378436292, 0.08583669097771199, 0.06890396287040346, 0.06288570408527565, 0.06722089049829143, 0.08502065588820333, 0.11852909675116034, 0.22185953996021818, 0.12755648492885197, 0.08078747386137582, 0.08695873922578672, 0.14413219768450058, 0.14601927882898985, 0.14260213189167137, 0.21313816494109245, 0.19870454429540457) Qmult=(0.031176987146294147, 0.02104001688178739, 0.016396089891472176, 0.010215349352663057, 0.009267420659876494, 0.08487651730692572, 0.06342795562103608, 0.025145505248240718, 0.020262239621490465, 0.01388577086960828, 0.011267238577546272, 0.010303767670559717, 0.010949007001808947, 0.013733127616412632, 0.019037881149668222, 0.03573983421022617, 0.020547659888358612, 0.013019709858368134, 0.016685227440983677, 0.023598869405961446, 0.024575640769737717, 0.023896837071975062, 0.03465941456346317, 0.03210964037337541)
New Loadshape.Ld667708 Npts=24 Interval=1 PMult=(0.12003924299006268, 0.12671688081524146, 0.1334261662130515, 0.13551490600670926, 0.1327299196151654, 0.11839356921324129, 0.25669346161149437, 0.312456484587632, 0.25457307424520526, 0.2971707070067728, 0.2938477118804989, 0.19026520665864935, 0.1438698651813403, 0.17146654851572876, 0.08930944996518766, 0.09972150136084562, 0.22931831128552446, 0.21928603076144068, 0.19263877460598788, 0.1995062978669537, 0.18225837078296084, 0.13383758465725681, 0.15216152921070958, 0.12700170896892202) Qmult=(0.1086501824607183, 0.11466298735449655, 0.12076760502527302, 0.12266662938822206, 0.12025271547943957, 0.10730974291950947, 0.2325529088793453, 0.038909383641058774, 0.17069033334321593, 0.2693334930270185, 0.036497163284607864, 0.024109619880110216, 0.1303698848786211, 0.15542959234427242, 0.08049219614403691, 0.09036382180324072, 0.20775764402926958, 0.16724445170839614, 0.17440398217003086, 0.18071668822977502, 0.16508038485121346, 0.12126248188044485, 0.13769951222978039, 0.07966574066367536)
New Loadshape.Ld734203 Npts=24 Interval=1 PMult=(0.2741123782261414, 0.31404958677685946, 0.3559721132092894, 0.2659864259661113, 0.22507964356618484, 0.16141096080151443, 0.2158456069070595, 0.21898517937116183, 0.26335472551826017, 0.2315434692275727, 0.2257721963156194, 0.2332055958262152, 0.26326238515166883, 0.2613694076365483, 0.2459485664158085, 0.18140265016852114, 0.20485710328270013, 0.21012050417840197, 0.23911537928805587, 0.36359019345306814, 0.35985040860612205, 0.37679486587561756, 0.27175769887806456, 0.25476707142527383) Qmult=(0.24830529552384034, 0.284403089375282, 0.32224922557314567, 0.22509744447495086, 0.20377029663618043, 0.14624752236510705, 0.026965951827751355, 0.027330213577387026, 0.033444740125034074, 0.20903036781141374, 0.20372813605744686, 0.21123247908111395, 0.23215514330325457, 0.060051460308892, 0.058147694644014564, 0.16426058190496573, 0.18547613231911317, 0.07620162157089344, 0.21656865366650446, 0.32890932351523805, 0.3251795158689461, 0.07122207117482357, 0.24610145860059418, 0.230563435386671)
New Loadshape.Ld780853 Npts=24 Interval=1 PMult=(0.0, 0.0, 0.0, 0.0, 0.0, 0.0, 0.0, 0.0, 0.0, 0.0, 0.0, 0.0, 0.0, 0.0, 0.0, 0.0, 0.0, 0.0, 0.0, 0.0, 0.0, 0.0, 0.0, 0.0) Qmult=(0.0, 0.0, 0.0, 0.0, 0.0, 0.0, 0.0, 0.0, 0.0, 0.0, 0.0, 0.0, 0.0, 0.0, 0.0, 0.0, 0.0, 0.0, 0.0, 0.0, 0.0, 0.0, 0.0, 0.0)
New Loadshape.Ld678411 Npts=24 Interval=1 PMult=(0.15805225796977496, 0.12091542171939904, 0.13994783621161613, 0.11622005525293007, 0.15627745539319826, 0.21375573054956434, 0.1786683157734289, 0.18090071200979757, 0.15233034131194478, 0.19044085732358365, 0.19256219119202697, 0.1406603493206192, 0.2069599484581639, 0.2019750565429263, 0.18265959821517164, 0.18526854199441034, 0.20050342451177672, 0.19138582423756806, 0.20268660002871441, 0.2507766144562425, 0.24316937644983397, 0.21477584140156314, 0.1563601459023423, 0.18260417119681183) Qmult=(0.18992525166418195, 0.022491688279212687, 0.023663166084875252, 0.019560018381400823, 0.02602222684272198, 0.06063225763864591, 0.029754237835975254, 0.0301082996548577, 0.025365157391115212, 0.03170235718699495, 0.032150252778599744, 0.03810832316184707, 0.034509009633733885, 0.03365714424256597, 0.03038035550728923, 0.030924620652267067, 0.03345895954845821, 0.031888959119135356, 0.03445211006919067, 0.0419307446838159, 0.04052357888411345, 0.03580528608537454, 0.026354905597149036, 0.21926715401262073)
New Loadshape.Ld705503 Npts=24 Interval=1 PMult=(0.3001258389261745, 0.295721476510067, 0.20141219239373606, 0.297329418344519, 0.181907158836689, 0.2823685682326622, 0.2319630872483223, 0.35542505592841156, 0.4350531319910517, 0.7174916107382547, 0.5220917225950776, 0.6486996644295311, 0.5967561521252805, 0.3064177852348994, 0.31844239373601796, 0.3564038031319913, 0.21252796420581666, 0.31760346756152136, 0.7239233780760637, 0.863394854586129, 0.5211129753914993, 0.5685822147651006, 0.544952460850112, 0.5922119686800895) Qmult=(0.053900745588096655, 0.05306525528827827, 0.03802155071041954, 0.05338587029544641, 0.0325647426747981, 0.12245410843923578, 0.04150649788988597, 0.06349381862734814, 0.07771489431232903, 0.12814187191599824, 0.09345467549544478, 0.11589967158334863, 0.10662206514978045, 0.4010476856114397, 0.05692450875203827, 0.06372207815851264, 0.04038117687021857, 0.05698112005596996, 0.12953704560655546, 0.15422526553207144, 0.09325103958631716, 0.10167843239540242, 0.0974448278378109, 0.1057821356559792)
New Loadshape.Ld658097 Npts=24 Interval=1 PMult=(0.10463018641010242, 0.10205308822266132, 0.10926896314749612, 0.10218194313203366, 0.10862468860063605, 0.1180310969847952, 0.12576239154711824, 0.2070268877244227, 0.3915041663087339, 0.30298084357014077, 0.23352804741860728, 0.2129971651919943, 0.1968903015204883, 0.21372734301176935, 0.20041233570999112, 0.21321192337428096, 0.14741001632162218, 0.20612490335881842, 0.19177905678206372, 0.20861609827334454, 0.18945966841336687, 0.18817111931964656, 0.17648827420324717, 0.14388798213211954) Qmult=(0.01777760381348884, 0.017446425841032964, 0.018539829489227097, 0.017363196865933263, 0.01831326101037009, 0.01989830008819046, 0.021285289455517813, 0.03484775580972038, 0.06580569776172532, 0.05096571087339916, 0.03932831032722071, 0.03631679424462913, 0.033332266149252894, 0.036401469498413754, 0.23204168135292444, 0.03593963149502908, 0.07648352475778723, 0.034770630776857145, 0.032996376587995355, 0.03517177869225372, 0.03212382133526941, 0.03188769159271379, 0.030904612766334525, 0.024433667451419432)
New Loadshape.Ld780858 Npts=24 Interval=1 PMult=(0.10234756959877161, 0.16622893854297136, 0.12715665279405228, 0.1068325992969413, 0.11709564022788788, 0.12586367125944473, 0.11208533678128418, 0.09673118105782051, 0.07188169218958348, 0.09729686047921123, 0.11220655380015364, 0.09539779385025646, 0.10133742777485955, 0.0839629884035719, 0.10465069295729112, 0.09491292577477878, 0.13244979595135145, 0.1419855347690816, 0.15051113176289976, 0.1349953533476102, 0.22877692027960744, 0.17087559093296686, 0.2307972039274313, 0.09992322922138257) Qmult=(0.020051908807471742, 0.032588009097932295, 0.02570372785131083, 0.019874758178419043, 0.020964369185196466, 0.024080359838348, 0.020827135880092475, 0.017618138696259018, 0.0132669272364514, 0.01897436609220735, 0.02248653479904015, 0.01942824915020976, 0.02033381929030502, 0.015974883068262422, 0.018706978890341917, 0.017530969401141596, 0.023847542276466065, 0.025445882612145112, 0.027469149347324074, 0.024569114345543708, 0.04152400533639709, 0.030931067461102586, 0.04195556914146342, 0.018119094005571497)
New Loadshape.Ld793102 Npts=24 Interval=1 PMult=(0.0, 0.0, 0.0, 0.0, 0.0, 0.0, 0.0, 0.0, 0.0, 0.0, 0.0, 0.0, 0.0, 0.0, 0.0, 0.0, 0.0, 0.0, 0.0, 0.0, 0.0, 0.0, 0.0, 0.0) Qmult=(0.0, 0.0, 0.0, 0.0, 0.0, 0.0, 0.0, 0.0, 0.0, 0.0, 0.0, 0.0, 0.0, 0.0, 0.0, 0.0, 0.0, 0.0, 0.0, 0.0, 0.0, 0.0, 0.0, 0.0)
New Loadshape.Ld608970 Npts=24 Interval=1 PMult=(0.12049252418645566, 0.11301671064204054, 0.13632365875109934, 0.12357080035180298, 0.09938434476693049, 0.1306068601583112, 0.17854001759014956, 0.2365875109938435, 0.21591908531222517, 0.23175021987686886, 0.1851363236587511, 0.12928759894459105, 0.08707124010554082, 0.07695690413368515, 0.053649956024626244, 0.15787159190853126, 0.1394019349164468, 0.09014951627088842, 0.11213720316622697, 0.10861917326297263, 0.16534740545294632, 0.33201407211961287, 0.2792436235708005, 0.1385224274406332) Qmult=(0.0247445264154653, 0.0261335315799737, 0.03004387146283008, 0.025733062116856473, 0.017926148109365027, 0.025573044452191065, 0.03331840837039284, 0.04281253491090978, 0.03917876132545769, 0.057179769963894955, 0.16621154038049366, 0.16373848751731762, 0.11161438872373904, 0.06692840732742913, 0.009606971484748511, 0.029957410116618618, 0.025166091755443865, 0.016258922330692576, 0.020536544097425957, 0.019841580722668863, 0.030191676761561956, 0.059629888247858864, 0.05068205981018672, 0.024951906940606693)
New Loadshape.Ld666435 Npts=24 Interval=1 PMult=(0.15369067795587366, 0.1729171856875298, 0.17066042446126464, 0.16924991392038455, 0.13432770721109485, 0.17465401662854224, 0.12248890892399672, 0.1369716618432158, 0.18807233111290045, 0.20206411066555918, 0.20890850517033918, 0.18802522593058757, 0.16088941441296642, 0.15350685389169666, 0.14772445937661557, 0.21706248535553535, 0.22598385535891963, 0.3218940972314122, 0.322323364757213, 0.32123280533619697, 0.30944174228513344, 0.2314294834657926, 0.17948354845391812, 0.14611677580958454) Qmult=(0.08926730437476428, 0.04000937165372037, 0.044490635938980345, 0.030408031883793953, 0.022914000647608075, 0.10428264320511726, 0.020923596688491874, 0.02335748686368716, 0.032048662083032906, 0.03442123825596214, 0.03558724116912853, 0.03203533454073071, 0.02742188148424595, 0.19007080760661596, 0.025166173952528462, 0.037080585777744084, 0.24984492563486219, 0.05490087933831442, 0.2719381720959361, 0.14231025654311297, 0.14167525109308174, 0.2246904069007709, 0.08494206447821166, 0.1791465197999377)
New Loadshape.Ld734204 Npts=24 Interval=1 PMult=(0.09681126113185884, 0.09781671933352497, 0.09767308244757276, 0.09508761850043095, 0.08891123240448157, 0.10528583740304538, 0.1353059465670786, 0.14004596380350498, 0.22048261993679927, 0.263573685722493, 0.3224648089629414, 0.30005745475438034, 0.26501005458201643, 0.20396437805228357, 0.1388968687158863, 0.0995403619649527, 0.09408216029876475, 0.17897155989658184, 0.2826773915541514, 0.2006607296753811, 0.2180407928756111, 0.2015225509910947, 0.1782533754668199, 0.09882217753519111) Qmult=(0.020696482199134433, 0.0274917595589681, 0.035281562141728236, 0.03484158724098024, 0.016424440976775815, 0.019507114443708742, 0.02516167594322007, 0.02562276518701042, 0.03986615440752153, 0.04763055072384774, 0.05800122177613838, 0.053974634420081664, 0.047538411678317634, 0.03655685749684583, 0.024952250239221523, 0.018335265168758264, 0.01716155772622576, 0.03231043173614013, 0.05146585881985134, 0.0367875613531644, 0.04076667276908103, 0.03660626909424506, 0.03304911329082733, 0.018074916713348814)
New Loadshape.Ld666428 Npts=24 Interval=1 PMult=(0.06566336407170792, 0.058962314076019665, 0.070883940897152, 0.06928654919999355, 0.07175346513760904, 0.08974222959705119, 0.12760047303508207, 0.16493507257358028, 0.27069132422093023, 0.2523641637802966, 0.20963801699323806, 0.15038679195136, 0.19557988994644782, 0.08885180176013978, 0.06989576138765129, 0.11408542472035102, 0.12787414561721996, 0.16189939793580882, 0.1855474117858283, 0.2056410420176565, 0.19507956414834454, 0.1772753551422646, 0.08513492559947239, 0.07450841867795181) Qmult=(0.05925941072271975, 0.053241238617227175, 0.06401374381858102, 0.06254801347353295, 0.06493400608105802, 0.08121133409111035, 0.09669204788557728, 0.0207715121188803, 0.034299966269404965, 0.03160962691965072, 0.18360534937131162, 0.11966119263130874, 0.16462405826513285, 0.08002471500696237, 0.06301931499704586, 0.10159346563108516, 0.11435408443195723, 0.14584238426564586, 0.16759113625595135, 0.18535862950961482, 0.17599156769409743, 0.03571657578498544, 0.07679835047261317, 0.06725874395757257)
New Loadshape.Ld608935 Npts=24 Interval=1 PMult=(0.369936391027787, 0.23853364579845987, 0.22251980805713636, 0.2286017185581966, 0.20181899341591336, 0.32317821671688435, 0.42595692445039607, 0.29449838187702265, 0.20795670126101992, 0.1842428300412901, 0.2562214038611762, 0.16415578618457768, 0.2807722352416026, 0.3887400959714318, 0.36625376632072315, 0.39710969757839537, 0.2227987947773685, 0.23401406093069987, 0.3644682513112377, 0.4293047650931813, 0.4311460774467135, 0.38862850128333887, 0.2024885615444704, 0.39537997991295604) Qmult=(0.06623112465265381, 0.042979518329568006, 0.040109022055436594, 0.1622359247764097, 0.2645660451981058, 0.05813794276040674, 0.20577962388740778, 0.3860071571187346, 0.2726170611073022, 0.24151441259469128, 0.3359016702293969, 0.21515593936440022, 0.368121096057767, 0.509761596198642, 0.4802603667618948, 0.4767071642611243, 0.27798793923617615, 0.30669415311181236, 0.12200863580767862, 0.13085147770523153, 0.09575603061064031, 0.16943455691246545, 0.2652926586380771, 0.07063468838826421)
New Loadshape.Ld608957 Npts=24 Interval=1 PMult=(0.2613293051359519, 0.23967774420946644, 0.24521651560926477, 0.22104733131923468, 0.21802618328298087, 0.311178247734139, 0.35045317220543826, 0.24420946626384682, 0.2759315206445115, 0.1923464249748238, 0.28247734138972813, 0.2633434038267876, 0.22155085599194355, 0.2331319234642497, 0.28046324269889217, 0.42698892245720055, 0.30815709969788524, 0.32628398791540764, 0.18580060422960717, 0.24118831822759315, 0.285498489425982, 0.23564954682779465, 0.323262839879154, 0.31268882175226587) Qmult=(0.17212563715186738, 0.2698269773158815, 0.08314068320424776, 0.06460446589420649, 0.0959500951420131, 0.22212450073013304, 0.3087796020133606, 0.2756922633836642, 0.3115250807170189, 0.21716268012616824, 0.31548593443917644, 0.2970478151277068, 0.2500033611229152, 0.2628272365568063, 0.04317173751566622, 0.06581905993443736, 0.047568687879109305, 0.05025931148870681, 0.12850456033377444, 0.22506798337441714, 0.12657731656748578, 0.26597982671786047, 0.14602047637173526, 0.15634759635023798)
New Loadshape.Ld509944 Npts=24 Interval=1 PMult=(0.16227825948611888, 0.1454538222893962, 0.08241190040569576, 0.08221302998965883, 0.08603134197756758, 0.140124095139607, 0.1469652374512768, 0.24250258531540866, 0.23442844642430985, 0.2604009227587307, 0.21048444833346608, 0.3638533131811314, 0.2506960464561294, 0.1379365205632011, 0.12015750536950107, 0.11896428287327984, 0.1365046535677352, 0.11411184472197933, 0.1368626203166017, 0.16788640521835985, 0.18729615782356238, 0.1639885450640364, 0.14203325113356133, 0.1791026966828416) Qmult=(0.029167512832600495, 0.026129800876092305, 0.014967154476987404, 0.014929656805636286, 0.015457771927250872, 0.025082827093660286, 0.04202228564930877, 0.04341170023872129, 0.04194578665301709, 0.04664294267539454, 0.19791933525582955, 0.06507609256892088, 0.044858803616939384, 0.02470938232349346, 0.021645960047390875, 0.021382783246153243, 0.024486803948328063, 0.02052932985287107, 0.024714547908831905, 0.03014236269776204, 0.033604828214950457, 0.02947727422925403, 0.025620587679721973, 0.03204773875473328)
New Loadshape.Ld780880 Npts=24 Interval=1 PMult=(0.20532972123766632, 0.4636841900796024, 0.2002175598705803, 0.22534913066385664, 0.17746133285358145, 0.1863344847922915, 0.12703534359480825, 0.12313903410690293, 0.06701791359325615, 0.05268703898840886, 0.048050579557428884, 0.04931506849315069, 0.05732349841938883, 0.05648050579557428, 0.053108535300316034, 0.07460484720758694, 0.14288724973656483, 0.14445117601658344, 0.12837646570446537, 0.14606646717231356, 0.1954430911995649, 0.29398639424992223, 0.2263708669751124, 0.20130036091055684) Qmult=(0.027982458592377583, 0.0618851775768633, 0.02899351106144665, 0.03096445951586598, 0.022052429898239384, 0.02491439279317176, 0.01677460886287771, 0.01565547919710953, 0.008704967497469678, 0.01259711993056588, 0.024187540962104744, 0.040087683252788525, 0.05039110132186896, 0.049492517704239763, 0.006576283381844987, 0.010347397797837094, 0.017829269256568893, 0.01796202853667809, 0.016260117830985295, 0.018390137635446682, 0.024662700870476565, 0.03659551775237539, 0.028635037994493164, 0.02501800848879024)
New Loadshape.Ld705504 Npts=24 Interval=1 PMult=(0.09723263470126153, 0.08921412040809672, 0.08347729717396271, 0.07803383421884665, 0.07718634896834975, 0.08657387789693279, 0.11258515596988178, 0.14022621337070953, 0.16620489585710088, 0.20929626128622197, 0.16258678574920968, 0.10463183284983203, 0.09645034062387944, 0.07721894455490738, 0.0791420841618045, 0.07780566511294369, 0.1188109130023794, 0.14329019850712196, 0.14433325727696492, 0.1760161674109325, 0.17595097623781739, 0.1676065060790769, 0.13520649304084228, 0.09622217151797656) Qmult=(0.017721972614035738, 0.016236188900191975, 0.01526442197455264, 0.014194708489388445, 0.013819610123553611, 0.015658833612462928, 0.02019194033171598, 0.02509513959352356, 0.029804914365756763, 0.037624422067506394, 0.2126544565890879, 0.13684443008042266, 0.1260906125205316, 0.1001566639843965, 0.014167233131241444, 0.014063619388919096, 0.021388118980023102, 0.025667432647248713, 0.025974169043339324, 0.03158907902463383, 0.031639848360821565, 0.030047418185440457, 0.024321967337102963, 0.017254089227706743)
New Loadshape.Ld667178 Npts=24 Interval=1 PMult=(0.11926311573888686, 0.10484581497797366, 0.10260312374849818, 0.11005206247497014, 0.11181417701241511, 0.0965158189827793, 0.12150580696836202, 0.31005206247496947, 0.34817781337605114, 0.25855026031237477, 0.2557468962755305, 0.16083299959951958, 0.1258309971966361, 0.11950340408490182, 0.11670004004805756, 0.29411293552262696, 0.2237885462555068, 0.17020424509411292, 0.3710853023628356, 0.19647577092511032, 0.26543852623147784, 0.14641569883860656, 0.14233079695634757, 0.13135762915498586) Qmult=(0.023188453914061585, 0.13394567132007845, 0.07060317425870916, 0.06010651294037842, 0.020197313375322226, 0.01899841468788378, 0.15879003122572038, 0.19640586004715974, 0.4300264949052961, 0.29627589368354273, 0.25164295718510155, 0.19329811137208844, 0.022821882348991365, 0.021409714060838223, 0.020961110894558613, 0.05318666152335501, 0.0401035249050819, 0.03062468510162702, 0.06661053972412304, 0.03555684510445609, 0.04808687953630942, 0.02672451621976991, 0.07787634334351745, 0.023743020615016958)
New Loadshape.Ld658086 Npts=24 Interval=1 PMult=(0.14155287710727604, 0.14367516918271747, 0.09458214872061833, 0.1418732230809274, 0.08969687262243228, 0.22580386817763182, 0.2097064830016416, 0.3756456973531414, 0.32226804949345306, 0.2962399391342645, 0.35173987906939524, 0.25435470307932573, 0.4036759700476515, 0.20009610379209558, 0.2710927802026189, 0.2621230929403755, 0.2455051455572015, 0.2336123012853882, 0.3903816121411123, 0.37268249709686413, 0.3486165058262923, 0.23449325271292998, 0.24998998918832369, 0.1898850758819525) Qmult=(0.050409571569550816, 0.08861055247316094, 0.09990550360611204, 0.1134655970015412, 0.11750596117623366, 0.04047399636898058, 0.03748778807982551, 0.06710159053745503, 0.0575894262541838, 0.05297058007150091, 0.06289662141423849, 0.045613595991819064, 0.07218745399566756, 0.26233482061401797, 0.3554633618498754, 0.0486566655060354, 0.32168052790131646, 0.30617356380875776, 0.06989526157977001, 0.06684870687042346, 0.06241971017350742, 0.042047255653141144, 0.044853457372285285, 0.045395802611248086)
New Loadshape.Ld667182 Npts=24 Interval=1 PMult=(0.22159703504043127, 0.25316711590296503, 0.27816711590296483, 0.25946765498652274, 0.26179245283018865, 0.18130053908355795, 0.1744272237196766, 0.1809299191374663, 0.23995956873315366, 0.4110512129380052, 0.29710242587601093, 0.37506738544474205, 0.21802560646900299, 0.30586253369272226, 0.2401280323450135, 0.25320080862533745, 0.2873315363881401, 0.34774258760107846, 0.33389487870619966, 0.24433962264150927, 0.18338948787061987, 0.15528975741239912, 0.1278975741239892, 0.12678571428571436) Qmult=(0.04076927651253533, 0.0823489783354315, 0.05066815060227988, 0.04715891430748255, 0.04680933976560658, 0.03248413561545177, 0.04641034542711952, 0.033193456554337475, 0.23032261661199682, 0.07355913779497623, 0.05352275808558916, 0.0671428625260591, 0.06284268812072108, 0.05467363116791993, 0.04294893878601559, 0.0457176354577331, 0.051479436386432896, 0.062248723299559015, 0.059783056094133466, 0.0438896944324925, 0.033365704004789956, 0.028132587419262195, 0.09906006619883514, 0.022946906425092305)
New Loadshape.Ld608927 Npts=24 Interval=1 PMult=(0.10867805235359905, 0.10528547746636355, 0.1021627664906128, 0.11577161802690948, 0.10397470989629537, 0.11877867304059542, 0.1662747214618916, 0.1834303558348436, 0.3000501175835621, 0.13678245113535634, 0.13462353984347897, 0.08789853116928188, 0.08485292416824101, 0.2037472531709018, 0.15806314815528774, 0.16450133004356424, 0.09179228189213176, 0.10752149273295064, 0.13254173252631196, 0.14703727977177244, 0.15605844481283038, 0.1256409267897763, 0.10867805235359906, 0.1062878291375922) Qmult=(0.0338445488126059, 0.03355366535200208, 0.034502119578381084, 0.016642014018402762, 0.014697515224657015, 0.03828095874613284, 0.09263438551521873, 0.18983391437950278, 0.31049395671618124, 0.14156218144358435, 0.13932149300576577, 0.09092718336892702, 0.08770835927946549, 0.02879510076099247, 0.02230960190156683, 0.13077510347337168, 0.013034662957452911, 0.015225415704677099, 0.10305651195413414, 0.09181621833136404, 0.02599264583260207, 0.018493612102777363, 0.11160101645547281, 0.015133077427555104)
New Loadshape.Ld608945 Npts=24 Interval=1 PMult=(0.2623314969088599, 0.34887908965275444, 0.1485024807895646, 0.20747172867943506, 0.3614386277312481, 0.15223136639834453, 0.310052015460549, 0.2707837144957843, 0.20000230141705963, 0.09295688900726778, 0.16087667896959826, 0.12221757162969477, 0.12256002435219379, 0.1361059320421601, 0.22992318274331394, 0.20633140545739512, 0.2207860278329793, 0.19518344212935293, 0.1730134907815773, 0.2207125598566991, 0.20194033828252936, 0.14379805459866218, 0.14134291654493528, 0.13448399401676508) Qmult=(0.04702154706407482, 0.062393150343994425, 0.02669545934296958, 0.03727545761861377, 0.06462729360974977, 0.027431775051503154, 0.055453537176840144, 0.0559974287301794, 0.2509564368852767, 0.12186047942995307, 0.21091010632160098, 0.16023887954323615, 0.1606887952607309, 0.178331644062691, 0.2967276018057187, 0.041286142882842346, 0.03950815082675966, 0.03529868544696233, 0.03174932818668173, 0.039575770605401434, 0.03625401927791822, 0.025859580816245984, 0.025612863449432182, 0.02413410938201383)
New Loadshape.Ld666436 Npts=24 Interval=1 PMult=(0.1996539244525696, 0.16824972698958054, 0.18394635520130673, 0.16397190447330845, 0.15218037021367495, 0.1774355952477568, 0.13662444001756197, 0.1232564429504271, 0.32744273132425283, 0.26761475897643455, 0.3307832000309114, 0.43240214829411655, 0.22572147101891968, 0.18311251533469297, 0.1509988022101159, 0.2147560105120589, 0.2616032668910937, 0.21369685492795487, 0.2578544472060813, 0.36885891892196704, 0.3126830653071675, 0.5531963362955944, 0.3945273274435986, 0.2718994289152769) Qmult=(0.0678343585765337, 0.0679280867645837, 0.045647325150034154, 0.0441520021107756, 0.01882020842055843, 0.15721875274850233, 0.04507689713000484, 0.11154975019489703, 0.040441749956026216, 0.03317082234421737, 0.04102679148926772, 0.05335722985277188, 0.02786968686566289, 0.022638074994477512, 0.01863761034613396, 0.026527404005557625, 0.032322722290810936, 0.026412098936597905, 0.032346583542506045, 0.04559932830072053, 0.03942184856460491, 0.06826450281104636, 0.048721338852706055, 0.08968986842518115)
New Loadshape.Ld667160 Npts=24 Interval=1 PMult=(0.1973928004235045, 0.13796982530439397, 0.11871360508205377, 0.13419798835362617, 0.10554526204340922, 0.14107993647432504, 0.18409211222869243, 0.17244573848597158, 0.19706193753308654, 0.15868184224457377, 0.13413181577554267, 0.17304129168872423, 0.16338009528851222, 0.1382345156167284, 0.13869772366331393, 0.19183430386447842, 0.16232133403917431, 0.35501588141874, 0.3108787718369507, 0.29552673372154553, 0.2830201164637373, 0.23087612493382734, 0.1614610905240868, 0.14280042350449976) Qmult=(0.04063917324326299, 0.17978626189202915, 0.15513924164331533, 0.13978420466655597, 0.13834677533535683, 0.18454702897481381, 0.03318018507075257, 0.03087617144699487, 0.03524439000202683, 0.02839465612575009, 0.024016411642413596, 0.03095534102997547, 0.029228209362725126, 0.024736895126064057, 0.18180224974018772, 0.034361618458409876, 0.029251103974645865, 0.1805020777868176, 0.07273507940752537, 0.1226394017103593, 0.05092640586606764, 0.04170246802011159, 0.11038402055834577, 0.1114807231431388)
New Loadshape.Ld667715 Npts=24 Interval=1 PMult=(0.2073713720316624, 0.2724274406332455, 0.3179419525065965, 0.32816622691292874, 0.3559531662269128, 0.4116094986807387, 0.3633740105540897, 0.269871372031662, 0.2740765171503958, 0.2899901055408969, 0.3995712401055409, 0.3369063324538258, 0.29213390501319286, 0.3522427440633244, 0.3027704485488129, 0.25255606860158314, 0.4680079155672819, 0.41218667546174126, 0.34605870712401066, 0.3141490765171504, 0.28924802110817927, 0.3252803430079157, 0.24744393139841703, 0.195910290237467) Qmult=(0.26704349583474113, 0.2571519157513641, 0.12506811124237593, 0.1371050044007245, 0.12858615377046562, 0.14544451491684235, 0.19730632589792904, 0.3537218476994118, 0.35928383348831483, 0.38017413103856285, 0.5238109827980123, 0.44161800615925056, 0.3827643158489222, 0.06303653899848344, 0.09597218599016269, 0.33093982988262977, 0.08397273634730872, 0.07384028857661332, 0.06272199606660181, 0.05658290926771668, 0.052375025473982685, 0.05835246432106986, 0.045091614738645015, 0.03509200813347147)
New Loadshape.Ld512370 Npts=24 Interval=1 PMult=(0.08141676482847245, 0.09274360809151196, 0.08277538620144709, 0.09043274964445078, 0.08653967645566414, 0.09610058934174338, 0.14260341264122176, 0.18940255982870313, 0.21940081306138098, 0.15490387769905056, 0.265207957528509, 0.2259189118302184, 0.17747431933533708, 0.1296337638858696, 0.1328203807795855, 0.26716430952429143, 0.27225715399151285, 0.1629974501124727, 0.1817064632249863, 0.20180321828378617, 0.18204831175518102, 0.11911615485141018, 0.11322431851592454, 0.09782226205652894) Qmult=(0.10588716425900985, 0.1206422433674019, 0.10763662161496468, 0.1175531768853612, 0.05469926397888772, 0.12510948476169645, 0.18563868855616145, 0.24655906684614398, 0.2853774632952651, 0.20061090909266202, 0.34415504756847964, 0.2963123430545675, 0.2295025962303996, 0.16970525648844545, 0.023867405580401804, 0.3465222839622678, 0.0719622990483638, 0.05560002311133371, 0.2363775545655382, 0.2625811726013381, 0.23689152446597117, 0.15498828183475424, 0.14731044703284035, 0.1273262881785671)