New Line.29608897 switch=yes
New Line.30212899 switch=yes
New Line.30300192 switch=yes
New Line.29737418 switch=yes
New Line.29933621 switch=yes
New Line.27812569 switch=yes
New Line.28924792 switch=yes
New Line.28924747 switch=yes
New Line.8696606 switch=yes
New Line.30083507 switch=yes
New Line.29762316 switch=yes
New Line.29912399 switch=yes
New Line.16284542 switch=yes
New Line.29912892 switch=yes
New Line.29913921 switch=yes
New Line.29776015 switch=yes
New Line.30061489 switch=yes
New Line.16289048 switch=yes
New Line.5406116 switch=yes
New Line.17769398 switch=yes
New Line.29774921 switch=yes
New Line.16578211 switch=yes
New Line.29722061 switch=yes
New Line.30241545 switch=yes
New Line.17769060 switch=yes
New Line.17769424 switch=yes
New Line.30213913 switch=yes
New Line.17268426 switch=yes
New Line.29593250 switch=yes
New Line.29930760 switch=yes
New Line.31668640 switch=yes
New Line.31668720 switch=yes
New Line.29811450 switch=yes
New Line.13780698 switch=yes
New Line.27811493 switch=yes
New Line.31668768 switch=yes
New Line.29522903 switch=yes
New Line.29740632 switch=yes
New Line.29763854 switch=yes
New Line.29883173 switch=yes
New Line.27810969 switch=yes
New Line.27811251 switch=yes
New Line.27811953 switch=yes
New Line.8683946 switch=yes
New Line.8713622 switch=yes
New Line.30082478 switch=yes
New Line.29610574 switch=yes
New Line.29881404 switch=yes
New Line.27810841 switch=yes
New Line.29610663 switch=yes
New Line.29795755 switch=yes
New Line.29950703 switch=yes
New Line.30251043 switch=yes
New Line.29913937 switch=yes
New Line.28923397 switch=yes
New Line.29516154 switch=yes
New Line.30094562 switch=yes
New Line.18909924 switch=yes
New Line.30034441 switch=yes
New Line.29518114 switch=yes
New Line.29862062 switch=yes
New Line.29882564 switch=yes
New Line.29560615 switch=yes
New Line.29882060 switch=yes
New Line.30065185 switch=yes
New Line.8684529 switch=yes
New Line.17768974 switch=yes
New Line.29862391 switch=yes
New Line.31668544 switch=yes
New Line.29863360 switch=yes
New Line.27812561 switch=yes
New Line.30248255 switch=yes
New Line.30294990 switch=yes
New Line.30300040 switch=yes
New Line.30306335 switch=yes
New Line.29443453 switch=yes
New Line.29780604 switch=yes
New Line.29880566 switch=yes
New Line.30248383 switch=yes
New Line.29762672 switch=yes
New Line.29932096 switch=yes
New Line.16578358 switch=yes
New Line.29442704 switch=yes
New Line.27809735 switch=yes
New Line.19130066 switch=yes
New Line.27809937 switch=yes
New Line.8683902 switch=yes
New Line.30082333 switch=yes
New Line.30253504 switch=yes
New Line.27809959 switch=yes
New Line.28924888 switch=yes
New Line.16284165 switch=yes
New Line.30105520 switch=yes
New Line.30157467 switch=yes
New Line.27810037 switch=yes
New Line.29864221 switch=yes
New Line.30294435 switch=yes
New Line.28923030 switch=yes
New Line.29510747 switch=yes
New Line.29792648 switch=yes
New Line.30107878 switch=yes
New Line.31668309 switch=yes
New Line.29594084 switch=yes
New Line.29775460 switch=yes
New Line.29793171 switch=yes
New Line.28923026 switch=yes
New Line.29605141 switch=yes
New Line.29748152 switch=yes
New Line.29761349 switch=yes
New Line.29594082 switch=yes
New Line.29775090 switch=yes
New Line.16295380 switch=yes
New Line.13780401 switch=yes
New Line.29594961 switch=yes
New Line.30214634 switch=yes
New Line.8688518 switch=yes
New Line.29730599 switch=yes
New Line.30046986 switch=yes
New Line.18460102 switch=yes
New Line.29593476 switch=yes
New Line.29811728 switch=yes
New Line.16551066 switch=yes
New Line.29549153 switch=yes
New Line.18387605 switch=yes
New Line.29548614 switch=yes
New Line.29730067 switch=yes
New Line.29764305 switch=yes
New Line.30242417 switch=yes
New Line.29603122 switch=yes
New Line.29878770 switch=yes
New Line.27810993 switch=yes
New Line.29523540 switch=yes
New Line.29878890 switch=yes
New Line.29913367 switch=yes
New Line.30081181 switch=yes
New Line.30301704 switch=yes
New Line.29548707 switch=yes
New Line.29729370 switch=yes
New Line.27811807 switch=yes
New Line.29733135 switch=yes
New Line.31684455 switch=yes
New Line.29512771 switch=yes
New Line.28923850 switch=yes
New Line.30242413 switch=yes
New Line.27811219 switch=yes
New Line.27812033 switch=yes
New Line.27812106 switch=yes
New Line.15993820 switch=yes
New Line.29610679 switch=yes
New Line.29740552 switch=yes
New Line.5406401 switch=yes
New Line.19706053 switch=yes
New Line.29559976 switch=yes
New Line.29773587 switch=yes
New Line.29862060 switch=yes
New Line.29559879 switch=yes
New Line.8683839 switch=yes
New Line.17260673 switch=yes
New Line.30549565 switch=yes
New Line.19706044 switch=yes
New Line.29547174 switch=yes
New Line.29560384 switch=yes
New Line.5406415 switch=yes
New Line.17640891 switch=yes
New Line.29737377 switch=yes
New Line.31668538 switch=yes
New Line.29932571 switch=yes
New Line.29933245 switch=yes
New Line.30300042 switch=yes
New Line.27812540 switch=yes
New Line.29780559 switch=yes
New Line.29737355 switch=yes
New Line.13778977 switch=yes
New Line.29845444 switch=yes
New Line.27809861 switch=yes
New Line.29864168 switch=yes
New Line.29762612 switch=yes
New Line.29846271 switch=yes
New Line.16284555 switch=yes
New Line.29723503 switch=yes
New Line.29436066 switch=yes
New Line.29748209 switch=yes
New Line.17769270 switch=yes
New Line.18328186 switch=yes
New Line.29509628 switch=yes
New Line.29547355 switch=yes
New Line.29774925 switch=yes
New Line.29817993 switch=yes
New Line.29849424 switch=yes
New Line.29812427 switch=yes
New Line.30081090 switch=yes
New Line.18046884 switch=yes
New Line.29879688 switch=yes
New Line.30104498 switch=yes
New Line.17268428 switch=yes
New Line.18460128 switch=yes
New Line.29774680 switch=yes
New Line.29930701 switch=yes
New Line.8687533 switch=yes
New Line.19129704 switch=yes
New Line.29879278 switch=yes
New Line.31668648 switch=yes
New Line.31668712 switch=yes
New Line.29729983 switch=yes
New Line.29950028 switch=yes
New Line.13780666 switch=yes
New Line.29748211 switch=yes
New Line.27811507 switch=yes
New Line.31668776 switch=yes
New Line.29522905 switch=yes
New Line.30048635 switch=yes
New Line.27810255 switch=yes
New Line.27810531 switch=yes
New Line.27810961 switch=yes
New Line.27811651 switch=yes
New Line.27811967 switch=yes
New Line.27812317 switch=yes
New Line.29610634 switch=yes
New Line.29733099 switch=yes
New Line.27810337 switch=yes
New Line.27810681 switch=yes
New Line.27811339 switch=yes
New Line.29732897 switch=yes
New Line.30082474 switch=yes
New Line.29516730 switch=yes
New Line.27810321 switch=yes
New Line.27810729 switch=yes
New Line.27811183 switch=yes
New Line.17259616 switch=yes
New Line.29610667 switch=yes
New Line.29795759 switch=yes
New Line.29950707 switch=yes
New Line.29610560 switch=yes
New Line.28923330 switch=yes
New Line.29516304 switch=yes
New Line.30034488 switch=yes
New Line.17640737 switch=yes
New Line.30094476 switch=yes
New Line.29740251 switch=yes
New Line.30034437 switch=yes
New Line.29518112 switch=yes
New Line.29882499 switch=yes
New Line.29882560 switch=yes
New Line.29608801 switch=yes
New Line.29517250 switch=yes
New Line.29588262 switch=yes
New Line.28649397 switch=yes
New Line.17640769 switch=yes
New Line.29561278 switch=yes
New Line.29882071 switch=yes
New Line.29773671 switch=yes
New Line.29861453 switch=yes
New Line.30250014 switch=yes
New Line.5406118 switch=yes
New Line.17254750 switch=yes
New Line.29880568 switch=yes
New Line.29951879 switch=yes
New Line.30307006 switch=yes
New Line.5406011 switch=yes
New Line.30047018 switch=yes
New Line.18348574 switch=yes
New Line.30091836 switch=yes
New Line.30295004 switch=yes
New Line.16281930 switch=yes
New Line.30033383 switch=yes
New Line.30034079 switch=yes
New Line.30294423 switch=yes
New Line.31668576 switch=yes
New Line.29739918 switch=yes
New Line.29442754 switch=yes
New Line.30034075 switch=yes
New Line.31668572 switch=yes
New Line.8683904 switch=yes
New Line.29762311 switch=yes
New Line.29933529 switch=yes
New Line.19709120 switch=yes
New Line.27810013 switch=yes
New Line.29518345 switch=yes
New Line.28924448 switch=yes
New Line.28924880 switch=yes
New Line.29750453 switch=yes
New Line.30061222 switch=yes
New Line.30105546 switch=yes
New Line.31668305 switch=yes
New Line.29749924 switch=yes
New Line.29864225 switch=yes
New Line.16286748 switch=yes
New Line.8683862 switch=yes
New Line.29438326 switch=yes
New Line.29932262 switch=yes
New Line.29593115 switch=yes
New Line.29594186 switch=yes
New Line.29749976 switch=yes
New Line.19129420 switch=yes
New Line.29750331 switch=yes
New Line.30104392 switch=yes
New Line.13780405 switch=yes
New Line.29605139 switch=yes
New Line.30034845 switch=yes
New Line.8688513 switch=yes
New Line.16552968 switch=yes
New Line.29812232 switch=yes
New Line.19129649 switch=yes
New Line.29593474 switch=yes
New Line.29764117 switch=yes
New Line.16551074 switch=yes
New Line.29722041 switch=yes
New Line.29747781 switch=yes
New Line.30550361 switch=yes
New Line.27810797 switch=yes
New Line.31668616 switch=yes
New Line.29436278 switch=yes
New Line.29548612 switch=yes
New Line.29593576 switch=yes
New Line.29603232 switch=yes
New Line.16472601 switch=yes
New Line.30082959 switch=yes
New Line.29913371 switch=yes
New Line.30482851 switch=yes
New Line.27810153 switch=yes
New Line.29883149 switch=yes
New Line.30082963 switch=yes
New Line.27811825 switch=yes
New Line.28923948 switch=yes
New Line.29733131 switch=yes
New Line.29913015 switch=yes
New Line.29511515 switch=yes
New Line.28923866 switch=yes
New Line.5406405 switch=yes
New Line.30094474 switch=yes
New Line.5406456 switch=yes
New Line.29559881 switch=yes
New Line.29560386 switch=yes
New Line.5406413 switch=yes
New Line.29845936 switch=yes
New Line.29722541 switch=yes
New Line.29951848 switch=yes
New Line.31668534 switch=yes
New Line.29528253 switch=yes
New Line.29931071 switch=yes
New Line.29780555 switch=yes
New Line.29881435 switch=yes
New Line.29952501 switch=yes
New Line.30294172 switch=yes
New Line.19709159 switch=yes
New Line.28649653 switch=yes
New Line.31668378 switch=yes
New Line.29763031 switch=yes
New Line.30033292 switch=yes
New Line.30297070 switch=yes
New Line.31668570 switch=yes
New Line.13778981 switch=yes
New Line.30033563 switch=yes
New Line.16493256 switch=yes
New Line.16286326 switch=yes
New Line.27809677 switch=yes
New Line.8696602 switch=yes
New Line.29511268 switch=yes
New Line.8683849 switch=yes
New Line.29762359 switch=yes
New Line.30157469 switch=yes
New Line.29735993 switch=yes
New Line.29809634 switch=yes
New Line.30107909 switch=yes
New Line.30061469 switch=yes
New Line.30097537 switch=yes
New Line.17268710 switch=yes
New Line.17271438 switch=yes
New Line.17769260 switch=yes
New Line.29721402 switch=yes
New Line.29849419 switch=yes
New Line.29722045 switch=yes
New Line.29812289 switch=yes
New Line.30081094 switch=yes
New Line.29879692 switch=yes
New Line.31668688 switch=yes
New Line.8687529 switch=yes
New Line.8635177 switch=yes
New Line.8687531 switch=yes
New Line.16296701 switch=yes
New Line.17640340 switch=yes
New Line.29446683 switch=yes
New Line.31668624 switch=yes
New Line.31668704 switch=yes
New Line.29729911 switch=yes
New Line.29811679 switch=yes
New Line.29950032 switch=yes
New Line.13780655 switch=yes
New Line.27810183 switch=yes
New Line.16472603 switch=yes
New Line.27810523 switch=yes
New Line.27810953 switch=yes
New Line.27811267 switch=yes
New Line.27811637 switch=yes
New Line.29512918 switch=yes
New Line.29523636 switch=yes
New Line.27810673 switch=yes
New Line.30082351 switch=yes
New Line.27811117 switch=yes
New Line.29610645 switch=yes
New Line.29795595 switch=yes
New Line.30093056 switch=yes
New Line.30251559 switch=yes
New Line.29740129 switch=yes
New Line.29913951 switch=yes
New Line.30242373 switch=yes
New Line.28923321 switch=yes
New Line.8684282 switch=yes
New Line.19684113 switch=yes
New Line.17640974 switch=yes
New Line.30094590 switch=yes
New Line.29740600 switch=yes
New Line.29882749 switch=yes
New Line.29546574 switch=yes
New Line.29561280 switch=yes
New Line.29780722 switch=yes
New Line.29793743 switch=yes
New Line.30300551 switch=yes
New Line.17768928 switch=yes
New Line.29862406 switch=yes
New Line.30250010 switch=yes
New Line.5406120 switch=yes
New Line.5406009 switch=yes
New Line.16577972 switch=yes
New Line.29597123 switch=yes
New Line.30250111 switch=yes
New Line.18348568 switch=yes
New Line.29523869 switch=yes
New Line.29737234 switch=yes
New Line.31668580 switch=yes
New Line.29931134 switch=yes
New Line.30297011 switch=yes
New Line.29735313 switch=yes
New Line.29762227 switch=yes
New Line.29518173 switch=yes
New Line.29912429 switch=yes
New Line.30253755 switch=yes
New Line.16286706 switch=yes
New Line.29864166 switch=yes
New Line.27810005 switch=yes
New Line.16284032 switch=yes
New Line.29750207 switch=yes
New Line.29750529 switch=yes
New Line.29851360 switch=yes
New Line.30061226 switch=yes
New Line.30104436 switch=yes
New Line.30105428 switch=yes
New Line.29878453 switch=yes
New Line.29792680 switch=yes
New Line.30064061 switch=yes
New Line.29592857 switch=yes
New Line.29594188 switch=yes
New Line.29775245 switch=yes
New Line.29793048 switch=yes
New Line.19129448 switch=yes
New Line.5406095 switch=yes
New Line.30005265 switch=yes
New Line.16296699 switch=yes
New Line.18047842 switch=yes
New Line.30034841 switch=yes
New Line.8688469 switch=yes
New Line.16552964 switch=yes
New Line.29747313 switch=yes
New Line.30105396 switch=yes
New Line.27810781 switch=yes
New Line.19129689 switch=yes
New Line.29593378 switch=yes
New Line.29764112 switch=yes
New Line.16551130 switch=yes
New Line.29602838 switch=yes
New Line.29721934 switch=yes
New Line.27810073 switch=yes
New Line.27810789 switch=yes
New Line.29444051 switch=yes
New Line.29548499 switch=yes
New Line.29720774 switch=yes
New Line.29761533 switch=yes
New Line.29878925 switch=yes
New Line.27810145 switch=yes
New Line.27811279 switch=yes
New Line.29883145 switch=yes
New Line.30083427 switch=yes
New Line.27812283 switch=yes
New Line.28923934 switch=yes
New Line.27811037 switch=yes
New Line.29512726 switch=yes
New Line.29740483 switch=yes
New Line.29795877 switch=yes
New Line.5406402 switch=yes
New Line.18206298 switch=yes
New Line.29610693 switch=yes
New Line.5406454 switch=yes
New Line.18206313 switch=yes
New Line.29523312 switch=yes
New Line.29608803 switch=yes
New Line.29846103 switch=yes
New Line.29560176 switch=yes
New Line.29861451 switch=yes
New Line.29862804 switch=yes
New Line.29952515 switch=yes
New Line.31668530 switch=yes
New Line.29528251 switch=yes
New Line.30301660 switch=yes
New Line.18348552 switch=yes
New Line.29861525 switch=yes
New Line.29931075 switch=yes
New Line.18755337 switch=yes
New Line.29880457 switch=yes
New Line.29881839 switch=yes
New Line.29952497 switch=yes
New Line.30248319 switch=yes
New Line.29523789 switch=yes
New Line.29763027 switch=yes
New Line.30297077 switch=yes
New Line.31668566 switch=yes
New Line.29737236 switch=yes
New Line.30047857 switch=yes
New Line.13780816 switch=yes
New Line.29763153 switch=yes
New Line.19684303 switch=yes
New Line.16493269 switch=yes
New Line.8683851 switch=yes
New Line.27810065 switch=yes
New Line.29735997 switch=yes
New Line.27809829 switch=yes
New Line.29861857 switch=yes
New Line.30294484 switch=yes
New Line.30241622 switch=yes
New Line.29436274 switch=yes
New Line.29810002 switch=yes
New Line.29952583 switch=yes
New Line.17268706 switch=yes
New Line.17769249 switch=yes
New Line.29774896 switch=yes
New Line.19129723 switch=yes
New Line.29547858 switch=yes
New Line.29608172 switch=yes
New Line.29812556 switch=yes
New Line.29812560 switch=yes
New Line.29879353 switch=yes
New Line.30107985 switch=yes
New Line.31668680 switch=yes
New Line.30265015 switch=yes
New Line.8635175 switch=yes
New Line.8688452 switch=yes
New Line.17640373 switch=yes
New Line.29594778 switch=yes
New Line.29879298 switch=yes
New Line.27810215 switch=yes
New Line.31668632 switch=yes
New Line.29729915 switch=yes
New Line.29811675 switch=yes
New Line.30265051 switch=yes
New Line.13780584 switch=yes
New Line.29512851 switch=yes
New Line.29729849 switch=yes
New Line.27811455 switch=yes
New Line.17254753 switch=yes
New Line.27810271 switch=yes
New Line.27810445 switch=yes
New Line.27810513 switch=yes
New Line.29512877 switch=yes
New Line.29733085 switch=yes
New Line.29734129 switch=yes
New Line.29741231 switch=yes
New Line.30482505 switch=yes
New Line.27811367 switch=yes
New Line.30082347 switch=yes
New Line.27810945 switch=yes
New Line.27811109 switch=yes
New Line.30250997 switch=yes
New Line.17259528 switch=yes
New Line.29446614 switch=yes
New Line.29610649 switch=yes
New Line.29795599 switch=yes
New Line.30250372 switch=yes
New Line.18046732 switch=yes
New Line.27812054 switch=yes
New Line.18206361 switch=yes
New Line.29444267 switch=yes
New Line.29546274 switch=yes
New Line.30034474 switch=yes
New Line.19684111 switch=yes
New Line.29862045 switch=yes
New Line.29518017 switch=yes
New Line.29793822 switch=yes
New Line.29882745 switch=yes
New Line.28649409 switch=yes
New Line.29561513 switch=yes
New Line.29882334 switch=yes
New Line.29517916 switch=yes
New Line.29862155 switch=yes
New Line.29561435 switch=yes
New Line.29737414 switch=yes
New Line.29950103 switch=yes
New Line.17768956 switch=yes
New Line.29862402 switch=yes
New Line.30248435 switch=yes
New Line.17254755 switch=yes
New Line.29951987 switch=yes
New Line.16577913 switch=yes
New Line.29845821 switch=yes
New Line.30047782 switch=yes
New Line.5406420 switch=yes
New Line.29443009 switch=yes
New Line.30034131 switch=yes
New Line.31668584 switch=yes
New Line.29442702 switch=yes
New Line.30297005 switch=yes
New Line.29746034 switch=yes
New Line.29933689 switch=yes
New Line.30253759 switch=yes
New Line.27809997 switch=yes
New Line.28924764 switch=yes
New Line.28924710 switch=yes
New Line.8696678 switch=yes
New Line.29851364 switch=yes
New Line.30105516 switch=yes
New Line.18387699 switch=yes
New Line.30240692 switch=yes
New Line.29593220 switch=yes
New Line.29775249 switch=yes
New Line.29793044 switch=yes
New Line.29913862 switch=yes
New Line.19129456 switch=yes
New Line.5406099 switch=yes
New Line.29793445 switch=yes
New Line.8688453 switch=yes
New Line.13780392 switch=yes
New Line.29594959 switch=yes
New Line.29721478 switch=yes
New Line.29817354 switch=yes
New Line.30034881 switch=yes
New Line.16578202 switch=yes
New Line.29747309 switch=yes
New Line.30107911 switch=yes
New Line.29439501 switch=yes
New Line.29593376 switch=yes
New Line.29811723 switch=yes
New Line.30213848 switch=yes
New Line.27810413 switch=yes
New Line.29602836 switch=yes
New Line.29881340 switch=yes
New Line.27810499 switch=yes
New Line.27810589 switch=yes
New Line.27810813 switch=yes
New Line.29436353 switch=yes
New Line.29548497 switch=yes
New Line.17640672 switch=yes
New Line.27811375 switch=yes
New Line.27811569 switch=yes
New Line.29740889 switch=yes
New Line.29879243 switch=yes
New Line.29913292 switch=yes
New Line.30085151 switch=yes
New Line.30096348 switch=yes
New Line.27810137 switch=yes
New Line.27810925 switch=yes
New Line.27811287 switch=yes
New Line.29882859 switch=yes
New Line.30083161 switch=yes
New Line.16472265 switch=yes
New Line.27810293 switch=yes
New Line.27810861 switch=yes
New Line.27811687 switch=yes
New Line.27811045 switch=yes
New Line.27812217 switch=yes
New Line.29511588 switch=yes
New Line.29516504 switch=yes
New Line.5406398 switch=yes
New Line.19706051 switch=yes
New Line.29515926 switch=yes
New Line.18206305 switch=yes
New Line.29560178 switch=yes
New Line.29863687 switch=yes
New Line.29528137 switch=yes
New Line.29932567 switch=yes
New Line.30066050 switch=yes
New Line.19682579 switch=yes
New Line.30047784 switch=yes
New Line.16281474 switch=yes
New Line.29862721 switch=yes
New Line.29880461 switch=yes
New Line.29952036 switch=yes
New Line.30032974 switch=yes
New Line.30295281 switch=yes
New Line.30297122 switch=yes
New Line.27809747 switch=yes
New Line.31668562 switch=yes
New Line.28924824 switch=yes
New Line.13780844 switch=yes
New Line.29735542 switch=yes
New Line.29763252 switch=yes
New Line.27809799 switch=yes
New Line.30252906 switch=yes
New Line.16284189 switch=yes
New Line.16088380 switch=yes
New Line.29762616 switch=yes
New Line.29851784 switch=yes
New Line.27809819 switch=yes
New Line.29439497 switch=yes
New Line.29861808 switch=yes
New Line.29547607 switch=yes
New Line.29921289 switch=yes
New Line.29952819 switch=yes
New Line.29810006 switch=yes
New Line.29932168 switch=yes
New Line.17769190 switch=yes
New Line.29849538 switch=yes
New Line.29812431 switch=yes
New Line.29817350 switch=yes
New Line.30081167 switch=yes
New Line.29603267 switch=yes
New Line.29879357 switch=yes
New Line.29747869 switch=yes
New Line.30213864 switch=yes
New Line.30264897 switch=yes
New Line.27810401 switch=yes
New Line.8684240 switch=yes
New Line.29594776 switch=yes
New Line.27810223 switch=yes
New Line.27810353 switch=yes
New Line.27810657 switch=yes
New Line.27811549 switch=yes
New Line.29730587 switch=yes
New Line.27810279 switch=yes
New Line.27810421 switch=yes
New Line.27810503 switch=yes
New Line.27811013 switch=yes
New Line.27811665 switch=yes
New Line.29512879 switch=yes
New Line.29733081 switch=yes
New Line.29734131 switch=yes
New Line.30482509 switch=yes
New Line.27810873 switch=yes
New Line.27811135 switch=yes
New Line.30242287 switch=yes
New Line.29446616 switch=yes
New Line.30093108 switch=yes
New Line.18046115 switch=yes
New Line.27812247 switch=yes
New Line.15664910 switch=yes
New Line.29444238 switch=yes
New Line.29546276 switch=yes
New Line.29729331 switch=yes
New Line.29795856 switch=yes
New Line.29882777 switch=yes
New Line.29722263 switch=yes
New Line.29517918 switch=yes
New Line.29561511 switch=yes
New Line.29882338 switch=yes
New Line.29883232 switch=yes
New Line.17641966 switch=yes
New Line.29862373 switch=yes
New Line.29780651 switch=yes
New Line.29950595 switch=yes
New Line.30300680 switch=yes
New Line.17768767 switch=yes
New Line.29845825 switch=yes
New Line.27812506 switch=yes
New Line.18348586 switch=yes
New Line.29443007 switch=yes
New Line.30034157 switch=yes
New Line.31668593 switch=yes
New Line.29931107 switch=yes
New Line.18755287 switch=yes
New Line.16283489 switch=yes
New Line.29735573 switch=yes
New Line.8696718 switch=yes
New Line.29776062 switch=yes
New Line.29792726 switch=yes
New Line.31668299 switch=yes
New Line.16284421 switch=yes
New Line.18387691 switch=yes
New Line.29912906 switch=yes
New Line.29913894 switch=yes
New Line.30294465 switch=yes
New Line.16284196 switch=yes
New Line.29723501 switch=yes
New Line.16289060 switch=yes
New Line.29593117 switch=yes
New Line.29750203 switch=yes
New Line.29913874 switch=yes
New Line.18387615 switch=yes
New Line.30241528 switch=yes
New Line.29817946 switch=yes
New Line.29861731 switch=yes
New Line.30034877 switch=yes
New Line.30214764 switch=yes
New Line.29746981 switch=yes
New Line.29774613 switch=yes
New Line.30105414 switch=yes
New Line.27810765 switch=yes
New Line.31668732 switch=yes
New Line.29721498 switch=yes
New Line.29881344 switch=yes
New Line.17260603 switch=yes
New Line.27810597 switch=yes
New Line.27810805 switch=yes
New Line.31668608 switch=yes
New Line.29548420 switch=yes
New Line.29721069 switch=yes
New Line.29811695 switch=yes
New Line.30107967 switch=yes
New Line.27812353 switch=yes
New Line.29523378 switch=yes
New Line.27811615 switch=yes
New Line.28923819 switch=yes
New Line.30081228 switch=yes
New Line.30096411 switch=yes
New Line.27811913 switch=yes
New Line.27812367 switch=yes
New Line.29549151 switch=yes
New Line.29850399 switch=yes
New Line.16472263 switch=yes
New Line.27810283 switch=yes
New Line.27811155 switch=yes
New Line.29950672 switch=yes
New Line.30242289 switch=yes
New Line.27812383 switch=yes
New Line.29516502 switch=yes
New Line.29739755 switch=yes
New Line.30096939 switch=yes
New Line.5406394 switch=yes
New Line.29610707 switch=yes
New Line.29795552 switch=yes
New Line.5406458 switch=yes
New Line.16088351 switch=yes
New Line.29436374 switch=yes
New Line.29862432 switch=yes
New Line.30239947 switch=yes
New Line.29863701 switch=yes
New Line.30065673 switch=yes
New Line.29592772 switch=yes
New Line.29882531 switch=yes
New Line.29528135 switch=yes
New Line.30300474 switch=yes
New Line.29484192 switch=yes
New Line.29863296 switch=yes
New Line.16282444 switch=yes
New Line.30299916 switch=yes
New Line.16281689 switch=yes
New Line.30032978 switch=yes
New Line.30297126 switch=yes
New Line.27809907 switch=yes
New Line.28924832 switch=yes
New Line.29763257 switch=yes
New Line.16282438 switch=yes
New Line.30253834 switch=yes
New Line.8696677 switch=yes
New Line.30253502 switch=yes
New Line.17268704 switch=yes
New Line.29434846 switch=yes
New Line.29861814 switch=yes
New Line.30294469 switch=yes
New Line.31179293 switch=yes
New Line.30157725 switch=yes
New Line.29747920 switch=yes
New Line.29750288 switch=yes
New Line.29793624 switch=yes
New Line.29811143 switch=yes
New Line.29952615 switch=yes
New Line.17271442 switch=yes
New Line.19129458 switch=yes
New Line.30240519 switch=yes
New Line.30214820 switch=yes
New Line.30264893 switch=yes
New Line.27810393 switch=yes
New Line.8638910 switch=yes
New Line.8688793 switch=yes
New Line.17640624 switch=yes
New Line.29594343 switch=yes
New Line.18387611 switch=yes
New Line.29730329 switch=yes
New Line.29765324 switch=yes
New Line.29811691 switch=yes
New Line.8687493 switch=yes
New Line.27810191 switch=yes
New Line.27810429 switch=yes
New Line.29610606 switch=yes
New Line.29732956 switch=yes
New Line.29741184 switch=yes
New Line.27810881 switch=yes
New Line.29741260 switch=yes
New Line.30092311 switch=yes
New Line.27811127 switch=yes
New Line.30103847 switch=yes
New Line.30251015 switch=yes
New Line.29446681 switch=yes
New Line.29850217 switch=yes
New Line.30096311 switch=yes
New Line.30250540 switch=yes
New Line.18047702 switch=yes
New Line.18909942 switch=yes
New Line.27812084 switch=yes
New Line.27812235 switch=yes
New Line.29444298 switch=yes
New Line.29512252 switch=yes
New Line.29795860 switch=yes
New Line.18348583 switch=yes
New Line.29862031 switch=yes
New Line.18909880 switch=yes
New Line.29882773 switch=yes
New Line.30549518 switch=yes
New Line.29546576 switch=yes
New Line.29883228 switch=yes
New Line.17641939 switch=yes
New Line.29780649 switch=yes
New Line.29950601 switch=yes
New Line.17768805 switch=yes
New Line.30066097 switch=yes
New Line.30248410 switch=yes
New Line.29932308 switch=yes
New Line.27812520 switch=yes
New Line.30212997 switch=yes
New Line.29442862 switch=yes
New Line.27812492 switch=yes
New Line.30294988 switch=yes
New Line.19705418 switch=yes
New Line.30047905 switch=yes
New Line.16288082 switch=yes
New Line.29746296 switch=yes
New Line.30091995 switch=yes
New Line.16282463 switch=yes
New Line.28924804 switch=yes
New Line.28925005 switch=yes
New Line.29933617 switch=yes
New Line.27809717 switch=yes
New Line.8696720 switch=yes
New Line.29776058 switch=yes
New Line.29792801 switch=yes
New Line.16284513 switch=yes
New Line.18387661 switch=yes
New Line.29912894 switch=yes
New Line.30240674 switch=yes
New Line.17270328 switch=yes
New Line.29746784 switch=yes
New Line.29774550 switch=yes
New Line.29793186 switch=yes
New Line.30240046 switch=yes
New Line.18046198 switch=yes
New Line.29721452 switch=yes
New Line.29817950 switch=yes
New Line.30104547 switch=yes
New Line.29730687 switch=yes
New Line.29746977 switch=yes
New Line.29774609 switch=yes
New Line.27810773 switch=yes
New Line.29879276 switch=yes
New Line.29721494 switch=yes
New Line.29881088 switch=yes
New Line.29930667 switch=yes
New Line.17259291 switch=yes
New Line.17260599 switch=yes
New Line.30107971 switch=yes
New Line.29740630 switch=yes
New Line.29913450 switch=yes
New Line.17640654 switch=yes
New Line.29882840 switch=yes
New Line.27811601 switch=yes
New Line.28923446 switch=yes
New Line.30096415 switch=yes
New Line.27811305 switch=yes
New Line.27810309 switch=yes
New Line.27811179 switch=yes
New Line.27811713 switch=yes
New Line.29516613 switch=yes
New Line.29738480 switch=yes
New Line.29739759 switch=yes
New Line.29729333 switch=yes
New Line.30096935 switch=yes
New Line.29559974 switch=yes
New Line.29773333 switch=yes
New Line.30253862 switch=yes
New Line.19706036 switch=yes
New Line.29523205 switch=yes
New Line.29608647 switch=yes
New Line.29882440 switch=yes
New Line.29455906 switch=yes
New Line.29863705 switch=yes
New Line.30065669 switch=yes
New Line.29592774 switch=yes
New Line.29528093 switch=yes
New Line.30300470 switch=yes
New Line.29881857 switch=yes
New Line.5406021 switch=yes
New Line.16283323 switch=yes
New Line.30091991 switch=yes
New Line.30295160 switch=yes
New Line.30306309 switch=yes
New Line.29880526 switch=yes
New Line.29881843 switch=yes
New Line.29952007 switch=yes
New Line.30294260 switch=yes
New Line.16578348 switch=yes
New Line.19130078 switch=yes
New Line.29735519 switch=yes
New Line.30296646 switch=yes
New Line.30082331 switch=yes
New Line.16284086 switch=yes
New Line.29847163 switch=yes
New Line.29933571 switch=yes
New Line.30157175 switch=yes
New Line.30157974 switch=yes
New Line.27810057 switch=yes
New Line.30294451 switch=yes
New Line.27809837 switch=yes
New Line.29439351 switch=yes
New Line.29932292 switch=yes
New Line.30061491 switch=yes
New Line.29547503 switch=yes
New Line.29548089 switch=yes
New Line.29952834 switch=yes
New Line.29811147 switch=yes
New Line.29811962 switch=yes
New Line.30062312 switch=yes
New Line.8688672 switch=yes
New Line.8684236 switch=yes
New Line.16578205 switch=yes
New Line.30046287 switch=yes
New Line.30240654 switch=yes
New Line.29811741 switch=yes
New Line.30264849 switch=yes
New Line.27810385 switch=yes
New Line.8688802 switch=yes
New Line.29594341 switch=yes
New Line.29930591 switch=yes
New Line.27810207 switch=yes
New Line.27810461 switch=yes
New Line.27810625 switch=yes
New Line.31668656 switch=yes
New Line.29730042 switch=yes
New Line.8688519 switch=yes
New Line.29553260 switch=yes
New Line.27810641 switch=yes
New Line.29721386 switch=yes