New LoadShape.451439699_PV_15March Npts=24 Interval=1 PMult=(0.0 0.0 0.0 0.0 0.0 0.0 0.0 0.233333333333333 0.944444444444445 1.54444444444444 1.92222222222222 2.13333333333333 2.2 2.1 1.47777777777778 0.877777777777778 0.788888888888889 0.266666666666667 0.0222222222222222 0.0 0.0 0.0 0.0 0.0 ) Qmult=(0 0 0 0 0 0 0 0 0 0 0 0 0 0 0 0 0 0 0 0 0 0 0 0)
New LoadShape.2931291354_PV_15March Npts=24 Interval=1 PMult=(0.0 0.0 0.0 0.0 0.0 0.0 0.0 0.279069767441861 1.03488372093023 1.63953488372093 2.03488372093023 2.26744186046512 2.33720930232558 2.2093023255814 1.56976744186047 0.906976744186047 0.837209302325581 0.302325581395349 0.0232558139534884 0.0 0.0 0.0 0.0 0.0 ) Qmult=(0 0 0 0 0 0 0 0 0 0 0 0 0 0 0 0 0 0 0 0 0 0 0 0)
New LoadShape.1030221544_PV_15March Npts=24 Interval=1 PMult=(0.0 0.0 0.0 0.0 0.0 0.0 0.0512820512820513 1.33333333333333 5.12820512820513 13.0 16.3333333333333 17.8461538461538 18.4615384615385 17.3589743589744 12.8974358974359 7.35897435897436 6.38461538461539 2.48717948717949 0.205128205128205 0.0 0.0 0.0 0.0 0.0 ) Qmult=(0 0 0 0 0 0 0 0 0 0 0 0 0 0 0 0 0 0 0 0 0 0 0 0)
New LoadShape.4812360182_PV_15March Npts=24 Interval=1 PMult=(0.0 0.0 0.0 0.0 0.0 0.0 0.0 0.051792828685259 0.266932270916335 0.617529880478088 1.0996015936255 1.32669322709163 1.48207171314741 1.43426294820717 1.17131474103586 0.689243027888446 0.637450199203187 0.262948207171315 0.0199203187250996 0.0 0.0 0.0 0.0 0.0 ) Qmult=(0 0 0 0 0 0 0 0 0 0 0 0 0 0 0 0 0 0 0 0 0 0 0 0)
New LoadShape.7940383629_PV_15March Npts=24 Interval=1 PMult=(0.0 0.0 0.0 0.0 0.0 0.0 0.00732600732600733 0.201465201465201 0.47985347985348 0.791208791208791 1.27106227106227 1.78021978021978 1.97802197802198 1.89377289377289 1.40659340659341 0.80952380952381 0.6996336996337 0.238095238095238 0.0183150183150183 0.0 0.0 0.0 0.0 0.0 ) Qmult=(0 0 0 0 0 0 0 0 0 0 0 0 0 0 0 0 0 0 0 0 0 0 0 0)
New LoadShape.650613472_PV_15March Npts=24 Interval=1 PMult=(0.0 0.0 0.0 0.0 0.0 0.0 0.00475059382422803 0.209026128266033 0.819477434679335 1.29453681710214 1.67458432304038 1.91923990498812 2.01900237529691 1.93586698337292 1.43467933491686 0.826603325415677 0.72209026128266 0.292161520190024 0.0237529691211401 0.0 0.0 0.0 0.0 0.0 ) Qmult=(0 0 0 0 0 0 0 0 0 0 0 0 0 0 0 0 0 0 0 0 0 0 0 0)
New LoadShape.4621689742_PV_15March Npts=24 Interval=1 PMult=(0.0 0.0 0.0 0.0 0.0 0.0 0.0126582278481013 0.286919831223629 0.734177215189873 1.24050632911392 1.62447257383966 1.85654008438819 1.9746835443038 1.92405063291139 1.45147679324895 0.827004219409283 0.729957805907173 0.282700421940928 0.0210970464135021 0.0 0.0 0.0 0.0 0.0 ) Qmult=(0 0 0 0 0 0 0 0 0 0 0 0 0 0 0 0 0 0 0 0 0 0 0 0)
New LoadShape.8900783215_PV_15March Npts=24 Interval=1 PMult=(0.0 0.0 0.0 0.0 0.0 0.0 0.00684931506849315 0.284246575342466 0.784246575342466 1.27739726027397 1.63698630136986 1.8527397260274 1.95890410958904 1.92123287671233 1.4486301369863 0.832191780821918 0.726027397260274 0.277397260273973 0.0205479452054795 0.0 0.0 0.0 0.0 0.0 ) Qmult=(0 0 0 0 0 0 0 0 0 0 0 0 0 0 0 0 0 0 0 0 0 0 0 0)
New LoadShape.541756159_PV_15March Npts=24 Interval=1 PMult=(0.0 0.0 0.0 0.0 0.0 0.0 0.0171990171990172 0.356265356265356 0.85995085995086 1.39312039312039 1.76904176904177 2.002457002457 2.11547911547912 2.03439803439803 1.52088452088452 0.855036855036855 0.742014742014742 0.285012285012285 0.0221130221130221 0.0 0.0 0.0 0.0 0.0 ) Qmult=(0 0 0 0 0 0 0 0 0 0 0 0 0 0 0 0 0 0 0 0 0 0 0 0)
New LoadShape.7390719920_PV_15March Npts=24 Interval=1 PMult=(0.0 0.0 0.0 0.0 0.0 0.0 0.0 0.0 0.0 0.0 0.0 0.0 0.0 0.0 0.0 0.0 0.0 0.0 0.0 0.0 0.0 0.0 0.0 0.0 ) Qmult=(0 0 0 0 0 0 0 0 0 0 0 0 0 0 0 0 0 0 0 0 0 0 0 0)
New LoadShape.1582277049_PV_15March Npts=24 Interval=1 PMult=(0.0 0.0 0.0 0.0 0.0 0.0 0.0153846153846154 0.369230769230769 0.933333333333333 1.47179487179487 1.81538461538462 2.02564102564103 2.12820512820513 2.04102564102564 1.4 0.841025641025641 0.733333333333333 0.241025641025641 0.0205128205128205 0.0 0.0 0.0 0.0 0.0 ) Qmult=(0 0 0 0 0 0 0 0 0 0 0 0 0 0 0 0 0 0 0 0 0 0 0 0)
New LoadShape.4561914544_PV_15March Npts=24 Interval=1 PMult=(0.0 0.0 0.0 0.0 0.0 0.0 0.0 0.0258620689655172 0.28448275862069 0.862068965517241 1.36206896551724 1.56896551724138 1.68965517241379 1.63793103448276 1.22413793103448 0.775862068965517 0.758620689655172 0.318965517241379 0.0172413793103448 0.0 0.0 0.0 0.0 0.0 ) Qmult=(0 0 0 0 0 0 0 0 0 0 0 0 0 0 0 0 0 0 0 0 0 0 0 0)
New LoadShape.5011263477_PV_15March Npts=24 Interval=1 PMult=(0.0 0.0 0.0 0.0 0.0 0.0 0.0 0.651162790697674 2.44186046511628 3.30232558139535 3.74418604651163 3.90697674418605 3.90697674418605 3.65116279069767 2.44186046511628 1.3953488372093 1.09302325581395 0.395348837209302 0.0232558139534884 0.0 0.0 0.0 0.0 0.0 ) Qmult=(0 0 0 0 0 0 0 0 0 0 0 0 0 0 0 0 0 0 0 0 0 0 0 0)
New LoadShape.6171127016_PV_15March Npts=24 Interval=1 PMult=(0.0 0.0 0.0 0.0 0.0 0.0 0.0 0.0294117647058824 0.343137254901961 0.96078431372549 1.3921568627451 1.62745098039216 1.73529411764706 1.64705882352941 1.17647058823529 0.754901960784314 0.725490196078431 0.323529411764706 0.0196078431372549 0.0 0.0 0.0 0.0 0.0 ) Qmult=(0 0 0 0 0 0 0 0 0 0 0 0 0 0 0 0 0 0 0 0 0 0 0 0)
New LoadShape.6311542843_PV_15March Npts=24 Interval=1 PMult=(0.0 0.0 0.0 0.0 0.0 0.0 0.0 0.637931034482759 2.20689655172414 2.98275862068966 3.32758620689655 3.39655172413793 3.37931034482759 3.08620689655172 1.55172413793103 1.01724137931034 0.96551724137931 0.344827586206897 0.0172413793103448 0.0 0.0 0.0 0.0 0.0 ) Qmult=(0 0 0 0 0 0 0 0 0 0 0 0 0 0 0 0 0 0 0 0 0 0 0 0)
New LoadShape.8640842565_PV_15March Npts=24 Interval=1 PMult=(0.0 0.0 0.0 0.0 0.0 0.0 0.0 0.0185185185185185 0.231481481481481 0.805555555555555 1.23148148148148 1.53703703703704 1.62962962962963 1.59259259259259 1.2037037037037 0.768518518518518 0.768518518518518 0.314814814814815 0.0185185185185185 0.0 0.0 0.0 0.0 0.0 ) Qmult=(0 0 0 0 0 0 0 0 0 0 0 0 0 0 0 0 0 0 0 0 0 0 0 0)
New LoadShape.2140407780_PV_15March Npts=24 Interval=1 PMult=(0.0 0.0 0.0 0.0 0.0 0.0 0.00202429149797571 0.0303643724696356 0.251012145748988 0.702429149797571 1.0748987854251 1.31781376518219 1.46558704453441 1.49595141700405 1.09716599190283 0.702429149797571 0.690283400809717 0.299595141700405 0.0222672064777328 0.0 0.0 0.0 0.0 0.0 ) Qmult=(0 0 0 0 0 0 0 0 0 0 0 0 0 0 0 0 0 0 0 0 0 0 0 0)
New LoadShape.4720906192_PV_15March Npts=24 Interval=1 PMult=(0.0 0.0 0.0 0.0 0.0 0.0 0.0 0.0 0.24 0.893333333333333 1.52 1.93333333333333 2.12 1.94666666666667 1.36 0.84 0.866666666666667 0.293333333333333 0.0133333333333333 0.0 0.0 0.0 0.0 0.0 ) Qmult=(0 0 0 0 0 0 0 0 0 0 0 0 0 0 0 0 0 0 0 0 0 0 0 0)
New LoadShape.5620392039_PV_15March Npts=24 Interval=1 PMult=(0.0 0.0 0.0 0.0 0.0 0.0 0.0 0.0258620689655172 0.267241379310345 0.818965517241379 1.27586206896552 1.51724137931034 1.63793103448276 1.62931034482759 1.16379310344828 0.741379310344828 0.724137931034483 0.310344827586207 0.0258620689655172 0.0 0.0 0.0 0.0 0.0 ) Qmult=(0 0 0 0 0 0 0 0 0 0 0 0 0 0 0 0 0 0 0 0 0 0 0 0)
New LoadShape.6411534274_PV_15March Npts=24 Interval=1 PMult=(0.0 0.0 0.0 0.0 0.0 0.0 0.00862068965517241 0.426724137931034 1.68965517241379 2.35775862068966 2.65948275862069 2.66810344827586 2.66810344827586 2.57758620689655 1.75431034482759 1.02586206896552 0.844827586206897 0.293103448275862 0.021551724137931 0.0 0.0 0.0 0.0 0.0 ) Qmult=(0 0 0 0 0 0 0 0 0 0 0 0 0 0 0 0 0 0 0 0 0 0 0 0)
New LoadShape.9190282830_PV_15March Npts=24 Interval=1 PMult=(0.0 0.0 0.0 0.0 0.0 0.0 0.0 0.765957446808511 2.23404255319149 3.08510638297872 3.53191489361702 3.70212765957447 3.74468085106383 3.53191489361702 2.40425531914894 1.40425531914894 1.12765957446809 0.404255319148936 0.0212765957446809 0.0 0.0 0.0 0.0 0.0 ) Qmult=(0 0 0 0 0 0 0 0 0 0 0 0 0 0 0 0 0 0 0 0 0 0 0 0)
New LoadShape.9720792666_PV_15March Npts=24 Interval=1 PMult=(0.0 0.0 0.0 0.0 0.0 0.0 0.0 0.0238095238095238 0.150793650793651 0.603174603174603 1.08730158730159 1.3968253968254 1.53968253968254 1.51587301587302 1.1031746031746 0.706349206349206 0.706349206349206 0.293650793650794 0.0238095238095238 0.0 0.0 0.0 0.0 0.0 ) Qmult=(0 0 0 0 0 0 0 0 0 0 0 0 0 0 0 0 0 0 0 0 0 0 0 0)
New LoadShape.4660361595_PV_15March Npts=24 Interval=1 PMult=(0.0 0.0 0.0 0.0 0.0 0.0 0.00289017341040462 0.0317919075144509 0.196531791907514 0.632947976878613 1.02601156069364 1.27456647398844 1.44508670520231 1.47687861271676 1.07803468208093 0.682080924855491 0.682080924855491 0.300578034682081 0.0202312138728324 0.0 0.0 0.0 0.0 0.0 ) Qmult=(0 0 0 0 0 0 0 0 0 0 0 0 0 0 0 0 0 0 0 0 0 0 0 0)
New LoadShape.4681643627_PV_15March Npts=24 Interval=1 PMult=(0.0 0.0 0.0 0.0 0.0 0.0 0.0024714091878270993 0.48453262546216014 1.3318975450942467 2.0677212048449523 2.59002528776461 2.861806942526147 2.903397817460316 2.6634259259259263 1.74001271151313 0.9642965750828008 0.7476388364185887 0.12533991549177922 0.004766228961567489 0.0 0.0 0.0 0.0 0.0 ) Qmult=(0 0 0 0 0 0 0 0 0 0 0 0 0 0 0 0 0 0 0 0 0 0 0 0)
New LoadShape.5101495921_PV_15March Npts=24 Interval=1 PMult=(0.0 0.0 0.0 0.0 0.0 0.0 0.0 0.518987341772152 1.51898734177215 2.16455696202532 2.53164556962025 2.63291139240506 2.63291139240506 2.49367088607595 1.74683544303797 1.05063291139241 0.911392405063291 0.291139240506329 0.0126582278481013 0.0 0.0 0.0 0.0 0.0 ) Qmult=(0 0 0 0 0 0 0 0 0 0 0 0 0 0 0 0 0 0 0 0 0 0 0 0)
New LoadShape.5431767340_PV_15March Npts=24 Interval=1 PMult=(0.0 0.0 0.0 0.0 0.0 0.0 0.000580046403712297 0.0295823665893271 0.151102088167053 0.548723897911833 0.924593967517401 1.18010440835267 1.35469837587007 1.40110208816705 1.03277262180974 0.659222737819026 0.662993039443155 0.254060324825986 0.0191415313225058 0.0 0.0 0.0 0.0 0.0 ) Qmult=(0 0 0 0 0 0 0 0 0 0 0 0 0 0 0 0 0 0 0 0 0 0 0 0)
New LoadShape.5470888249_PV_15March Npts=24 Interval=1 PMult=(0.0 0.0 0.0 0.0 0.0 0.0 0.0 0.418181818181818 1.58181818181818 2.27272727272727 2.63636363636364 2.85454545454545 2.90909090909091 2.76363636363636 1.89090909090909 1.14545454545455 0.981818181818182 0.309090909090909 0.0 0.0 0.0 0.0 0.0 0.0 ) Qmult=(0 0 0 0 0 0 0 0 0 0 0 0 0 0 0 0 0 0 0 0 0 0 0 0)
New LoadShape.6430638642_PV_15March Npts=24 Interval=1 PMult=(0.0 0.0 0.0 0.0 0.0 0.0 0.0 0.434210526315789 1.51315789473684 2.13157894736842 2.48684210526316 2.61842105263158 2.68421052631579 2.52631578947368 1.72368421052632 1.03947368421053 0.881578947368421 0.302631578947368 0.0263157894736842 0.0 0.0 0.0 0.0 0.0 ) Qmult=(0 0 0 0 0 0 0 0 0 0 0 0 0 0 0 0 0 0 0 0 0 0 0 0)
New LoadShape.7860311383_PV_15March Npts=24 Interval=1 PMult=(0.0 0.0 0.0 0.0 0.0 0.0 0.0 0.506329113924051 1.50632911392405 2.16455696202532 2.55696202531646 2.74050632911392 2.79746835443038 2.61392405063291 1.73417721518987 0.993670886075949 0.848101265822785 0.284810126582278 0.0126582278481013 0.0 0.0 0.0 0.0 0.0 ) Qmult=(0 0 0 0 0 0 0 0 0 0 0 0 0 0 0 0 0 0 0 0 0 0 0 0)
New LoadShape.5161537618_PV_15March Npts=24 Interval=1 PMult=(0.0 0.0 0.0 0.0 0.0 0.0 0.003125 0.0375 0.140625 0.5125 0.871875 1.140625 1.3 1.34375 1.00625 0.65625 0.6625 0.303125 0.028125 0.0 0.0 0.0 0.0 0.0 ) Qmult=(0 0 0 0 0 0 0 0 0 0 0 0 0 0 0 0 0 0 0 0 0 0 0 0)
New LoadShape.9191224199_PV_15March Npts=24 Interval=1 PMult=(0.0 0.0 0.0 0.0 0.0 0.0 0.00363636363636364 0.196363636363636 0.727272727272727 1.21090909090909 1.61818181818182 1.86545454545455 1.96 1.90181818181818 1.35272727272727 0.807272727272727 0.712727272727273 0.247272727272727 0.0181818181818182 0.0 0.0 0.0 0.0 0.0 ) Qmult=(0 0 0 0 0 0 0 0 0 0 0 0 0 0 0 0 0 0 0 0 0 0 0 0)
New LoadShape.8831933172_PV_15March Npts=24 Interval=1 PMult=(0.0 0.0 0.0 0.0 0.0 0.0 0.00268817204301075 0.102150537634409 0.473118279569892 0.924731182795699 1.28225806451613 1.51612903225806 1.66397849462366 1.64516129032258 1.20430107526882 0.741935483870968 0.712365591397849 0.287634408602151 0.021505376344086 0.0 0.0 0.0 0.0 0.0 ) Qmult=(0 0 0 0 0 0 0 0 0 0 0 0 0 0 0 0 0 0 0 0 0 0 0 0)
New LoadShape.1091625436_PV_15March Npts=24 Interval=1 PMult=(0.0 0.0 0.0 0.0 0.0 0.0 0.015748031496063 0.566929133858268 1.28346456692913 1.88188976377953 2.25984251968504 2.45669291338583 2.50787401574803 2.33464566929134 1.58267716535433 0.929133858267716 0.78740157480315 0.295275590551181 0.0196850393700787 0.0 0.0 0.0 0.0 0.0 ) Qmult=(0 0 0 0 0 0 0 0 0 0 0 0 0 0 0 0 0 0 0 0 0 0 0 0)
New LoadShape.5610497025_PV_15March Npts=24 Interval=1 PMult=(0.0 0.0 0.0 0.0 0.0 0.0 0.0 0.0265486725663717 0.380530973451328 0.920353982300885 1.31858407079646 1.53097345132743 1.36283185840708 1.33628318584071 1.10619469026549 0.743362831858407 0.725663716814159 0.300884955752212 0.0265486725663717 0.0 0.0 0.0 0.0 0.0 ) Qmult=(0 0 0 0 0 0 0 0 0 0 0 0 0 0 0 0 0 0 0 0 0 0 0 0)
New LoadShape.6200700400_PV_15March Npts=24 Interval=1 PMult=(0.0 0.0 0.0 0.0 0.0 0.0 0.0 0.722222222222222 2.27777777777778 3.07407407407407 3.44444444444444 3.57407407407407 3.55555555555556 3.2962962962963 2.22222222222222 1.25925925925926 1.0 0.333333333333333 0.0185185185185185 0.0 0.0 0.0 0.0 0.0 ) Qmult=(0 0 0 0 0 0 0 0 0 0 0 0 0 0 0 0 0 0 0 0 0 0 0 0)
New LoadShape.200855329_PV_15March Npts=24 Interval=1 PMult=(0.0 0.0 0.0 0.0 0.0 0.0 0.0 0.196261682242991 0.794392523364486 1.35514018691589 1.73831775700935 1.90654205607477 1.98130841121495 1.88785046728972 1.38317757009346 0.850467289719626 0.794392523364486 0.299065420560748 0.0280373831775701 0.0 0.0 0.0 0.0 0.0 ) Qmult=(0 0 0 0 0 0 0 0 0 0 0 0 0 0 0 0 0 0 0 0 0 0 0 0)
New LoadShape.1252027968_PV_15March Npts=24 Interval=1 PMult=(0.0 0.0 0.0 0.0 0.0 0.0 0.0 0.28 0.93 1.48 1.83 1.99 2.05 1.97 1.44 0.87 0.8 0.3 0.02 0.0 0.0 0.0 0.0 0.0 ) Qmult=(0 0 0 0 0 0 0 0 0 0 0 0 0 0 0 0 0 0 0 0 0 0 0 0)
New LoadShape.1662291303_PV_15March Npts=24 Interval=1 PMult=(0.0 0.0 0.0 0.0 0.0 0.0 0.0 0.452380952380952 2.95238095238095 3.92857142857143 4.33333333333333 4.45238095238095 4.33333333333333 3.83333333333333 2.54761904761905 1.45238095238095 1.02380952380952 0.428571428571429 0.0238095238095238 0.0 0.0 0.0 0.0 0.0 ) Qmult=(0 0 0 0 0 0 0 0 0 0 0 0 0 0 0 0 0 0 0 0 0 0 0 0)
New LoadShape.5710784846_PV_15March Npts=24 Interval=1 PMult=(0.0 0.0 0.0 0.0 0.0 0.0 0.0 0.0810810810810811 2.78378378378378 4.2972972972973 4.83783783783784 5.0 4.97297297297297 4.54054054054054 2.97297297297297 1.64864864864865 1.21621621621622 0.459459459459459 0.027027027027027 0.0 0.0 0.0 0.0 0.0 ) Qmult=(0 0 0 0 0 0 0 0 0 0 0 0 0 0 0 0 0 0 0 0 0 0 0 0)
New LoadShape.6780944360_PV_15March Npts=24 Interval=1 PMult=(0.0 0.0 0.0 0.0 0.0 0.0 0.0 0.189189189189189 0.774774774774775 1.31531531531532 1.63963963963964 1.81081081081081 1.89189189189189 1.81981981981982 1.33333333333333 0.81981981981982 0.765765765765766 0.297297297297297 0.018018018018018 0.0 0.0 0.0 0.0 0.0 ) Qmult=(0 0 0 0 0 0 0 0 0 0 0 0 0 0 0 0 0 0 0 0 0 0 0 0)
New LoadShape.10320098_PV_15March Npts=24 Interval=1 PMult=(0.0 0.0 0.0 0.0 0.0 0.0 0.0 0.326315789473684 1.02105263157895 1.58947368421053 1.94736842105263 2.12631578947368 2.18947368421053 2.10526315789474 1.51578947368421 0.905263157894737 0.831578947368421 0.305263157894737 0.0210526315789474 0.0 0.0 0.0 0.0 0.0 ) Qmult=(0 0 0 0 0 0 0 0 0 0 0 0 0 0 0 0 0 0 0 0 0 0 0 0)
New LoadShape.710525704_PV_15March Npts=24 Interval=1 PMult=(0.0 0.0 0.0 0.0 0.0 0.0 0.0 0.372093023255814 1.1046511627907 1.69767441860465 2.04651162790698 2.17441860465116 2.22093023255814 2.11627906976744 1.52325581395349 0.906976744186047 0.825581395348837 0.290697674418605 0.0116279069767442 0.0 0.0 0.0 0.0 0.0 ) Qmult=(0 0 0 0 0 0 0 0 0 0 0 0 0 0 0 0 0 0 0 0 0 0 0 0)
New LoadShape.2571237851_PV_15March Npts=24 Interval=1 PMult=(0.0 0.0 0.0 0.0 0.0 0.0 0.0 0.354166666666667 1.0625 1.61458333333333 1.91666666666667 2.0625 2.10416666666667 2.01041666666667 1.47916666666667 0.895833333333333 0.8125 0.291666666666667 0.0208333333333333 0.0 0.0 0.0 0.0 0.0 ) Qmult=(0 0 0 0 0 0 0 0 0 0 0 0 0 0 0 0 0 0 0 0 0 0 0 0)
New LoadShape.4250277748_PV_15March Npts=24 Interval=1 PMult=(0.0 0.0 0.0 0.0 0.0 0.0 0.0 0.126315789473684 1.0 1.58947368421053 1.91578947368421 2.07368421052632 2.14736842105263 2.07368421052632 1.48421052631579 0.88421052631579 0.8 0.294736842105263 0.0105263157894737 0.0 0.0 0.0 0.0 0.0 ) Qmult=(0 0 0 0 0 0 0 0 0 0 0 0 0 0 0 0 0 0 0 0 0 0 0 0)
New LoadShape.6491014544_PV_15March Npts=24 Interval=1 PMult=(0.0 0.0 0.0 0.0 0.0 0.0 0.0 0.336842105263158 1.03157894736842 1.56842105263158 1.92631578947368 2.09473684210526 2.17894736842105 2.09473684210526 1.49473684210526 0.88421052631579 0.8 0.28421052631579 0.0210526315789474 0.0 0.0 0.0 0.0 0.0 ) Qmult=(0 0 0 0 0 0 0 0 0 0 0 0 0 0 0 0 0 0 0 0 0 0 0 0)
New LoadShape.7400317484_PV_15March Npts=24 Interval=1 PMult=(0.0 0.0 0.0 0.0 0.0 0.0 0.0 0.285714285714286 0.928571428571429 1.5 1.8469387755102 2.03061224489796 2.10204081632653 2.02040816326531 1.44897959183673 0.857142857142857 0.785714285714286 0.295918367346939 0.0204081632653061 0.0 0.0 0.0 0.0 0.0 ) Qmult=(0 0 0 0 0 0 0 0 0 0 0 0 0 0 0 0 0 0 0 0 0 0 0 0)
New LoadShape.6501485646_PV_15March Npts=24 Interval=1 PMult=(0.0 0.0 0.0 0.0 0.0 0.0 0.00497512437810945 0.194029850746269 0.800995024875622 1.31840796019901 1.66666666666667 1.89054726368159 2.00497512437811 1.9452736318408 1.50248756218905 0.850746268656717 0.751243781094527 0.283582089552239 0.0248756218905473 0.0 0.0 0.0 0.0 0.0 ) Qmult=(0 0 0 0 0 0 0 0 0 0 0 0 0 0 0 0 0 0 0 0 0 0 0 0)
New LoadShape.1200379460_PV_15March Npts=24 Interval=1 PMult=(0.0 0.0 0.0 0.0 0.0 0.0 0.0 0.0980392156862745 0.594771241830065 1.10457516339869 1.47058823529412 1.69281045751634 1.82352941176471 1.80392156862745 1.39869281045752 0.797385620915033 0.725490196078431 0.281045751633987 0.0196078431372549 0.0 0.0 0.0 0.0 0.0 ) Qmult=(0 0 0 0 0 0 0 0 0 0 0 0 0 0 0 0 0 0 0 0 0 0 0 0)
New LoadShape.8112074760_PV_15March Npts=24 Interval=1 PMult=(0.0 0.0 0.0 0.0 0.0 0.0 0.0021551724137931 0.150862068965517 0.433189655172414 0.84051724137931 1.17456896551724 1.39224137931034 1.51293103448276 1.51508620689655 1.19396551724138 0.72198275862069 0.655172413793104 0.273706896551724 0.0193965517241379 0.0 0.0 0.0 0.0 0.0 ) Qmult=(0 0 0 0 0 0 0 0 0 0 0 0 0 0 0 0 0 0 0 0 0 0 0 0)
New LoadShape.9161962921_PV_15March Npts=24 Interval=1 PMult=(0.0 0.0 0.0 0.0 0.0 0.0 0.015527950310559 0.43167701863354 1.09316770186335 1.63354037267081 1.98136645962733 2.17080745341615 2.23291925465839 2.10248447204969 1.59627329192547 0.897515527950311 0.754658385093168 0.295031055900621 0.0248447204968944 0.0 0.0 0.0 0.0 0.0 ) Qmult=(0 0 0 0 0 0 0 0 0 0 0 0 0 0 0 0 0 0 0 0 0 0 0 0)
New LoadShape.1641026712_PV_15March Npts=24 Interval=1 PMult=(0.0 0.0 0.0 0.0 0.0 0.0 0.0122699386503067 0.45398773006135 1.26993865030675 1.8680981595092 2.22085889570552 2.34355828220859 2.35276073619632 2.28220858895706 1.71779141104294 0.960122699386503 0.723926380368098 0.303680981595092 0.0245398773006135 0.0 0.0 0.0 0.0 0.0 ) Qmult=(0 0 0 0 0 0 0 0 0 0 0 0 0 0 0 0 0 0 0 0 0 0 0 0)
New LoadShape.7891411831_PV_15March Npts=24 Interval=1 PMult=(0.0 0.0 0.0 0.0 0.0 0.0 0.00320512820512821 0.0416666666666667 0.182692307692308 0.532051282051282 0.868589743589744 1.11858974358974 1.28205128205128 1.32051282051282 1.06410256410256 0.653846153846154 0.625 0.269230769230769 0.0192307692307692 0.0 0.0 0.0 0.0 0.0 ) Qmult=(0 0 0 0 0 0 0 0 0 0 0 0 0 0 0 0 0 0 0 0 0 0 0 0)
New LoadShape.1840529166_PV_15March Npts=24 Interval=1 PMult=(0.0 0.0 0.0 0.0 0.0 0.0 0.0 0.0455927051671733 0.297872340425532 0.86322188449848 1.26747720364742 1.51063829787234 1.65045592705167 1.65349544072948 1.28267477203647 0.747720364741641 0.683890577507599 0.194528875379939 0.0182370820668693 0.0 0.0 0.0 0.0 0.0 ) Qmult=(0 0 0 0 0 0 0 0 0 0 0 0 0 0 0 0 0 0 0 0 0 0 0 0)
New LoadShape.6020312645_PV_15March Npts=24 Interval=1 PMult=(0.0 0.0 0.0 0.0 0.0 0.0 0.030188679245283 1.13962264150943 2.2 2.85660377358491 3.17735849056604 3.30943396226415 3.24528301886792 2.91698113207547 2.06415094339623 1.13207547169811 0.852830188679245 0.309433962264151 0.0264150943396226 0.0 0.0 0.0 0.0 0.0 ) Qmult=(0 0 0 0 0 0 0 0 0 0 0 0 0 0 0 0 0 0 0 0 0 0 0 0)
New LoadShape.2570456096_PV_15March Npts=24 Interval=1 PMult=(0.0 0.0 0.0 0.0 0.0 0.0 0.0 0.0972972972972973 0.578378378378378 1.08648648648649 1.44324324324324 1.65405405405405 1.78378378378378 1.76216216216216 1.35135135135135 0.778378378378378 0.708108108108108 0.281081081081081 0.0216216216216216 0.0 0.0 0.0 0.0 0.0 ) Qmult=(0 0 0 0 0 0 0 0 0 0 0 0 0 0 0 0 0 0 0 0 0 0 0 0)
New LoadShape.7631830537_PV_15March Npts=24 Interval=1 PMult=(0.0 0.0 0.0 0.0 0.0 0.0 0.0217391304347826 1.0 2.21739130434783 2.90217391304348 3.26086956521739 3.39130434782609 3.33695652173913 3.0 2.1195652173913 1.15217391304348 0.847826086956522 0.304347826086956 0.0 0.0 0.0 0.0 0.0 0.0 ) Qmult=(0 0 0 0 0 0 0 0 0 0 0 0 0 0 0 0 0 0 0 0 0 0 0 0)
New LoadShape.870608448_PV_15March Npts=24 Interval=1 PMult=(0.0 0.0 0.0 0.0 0.0 0.0 0.00550964187327824 0.300275482093664 0.9366391184573 1.45179063360882 1.81267217630854 2.0 2.0633608815427 2.01928374655647 1.45179063360882 0.853994490358127 0.763085399449036 0.272727272727273 0.0220385674931129 0.0 0.0 0.0 0.0 0.0 ) Qmult=(0 0 0 0 0 0 0 0 0 0 0 0 0 0 0 0 0 0 0 0 0 0 0 0)
New LoadShape.5791498433_PV_15March Npts=24 Interval=1 PMult=(0.0 0.0 0.0 0.0 0.0 0.0 0.00552486187845304 0.356353591160221 1.06077348066298 1.64640883977901 2.00276243093923 2.19613259668508 2.2817679558011 2.15469613259669 1.50276243093923 0.883977900552486 0.770718232044199 0.267955801104972 0.0193370165745856 0.0 0.0 0.0 0.0 0.0 ) Qmult=(0 0 0 0 0 0 0 0 0 0 0 0 0 0 0 0 0 0 0 0 0 0 0 0)
New LoadShape.9071811938_PV_15March Npts=24 Interval=1 PMult=(0.0 0.0 0.0 0.0 0.0 0.0 0.0369230769230769 1.16 2.19384615384615 2.84 3.17538461538462 3.30769230769231 3.27384615384615 2.91692307692308 1.94461538461538 1.12307692307692 0.849230769230769 0.32 0.0276923076923077 0.0 0.0 0.0 0.0 0.0 ) Qmult=(0 0 0 0 0 0 0 0 0 0 0 0 0 0 0 0 0 0 0 0 0 0 0 0)
New LoadShape.5750285124_PV_15March Npts=24 Interval=1 PMult=(0.0 0.0 0.0 0.0 0.0 0.0 0.0581717451523546 1.09252077562327 2.5393351800554 3.76952908587258 4.53240997229917 4.91772853185596 5.03795013850416 4.65263157894737 3.24570637119114 1.89058171745152 1.55096952908587 0.472299168975069 0.0221606648199446 0.0 0.0 0.0 0.0 0.0 ) Qmult=(0 0 0 0 0 0 0 0 0 0 0 0 0 0 0 0 0 0 0 0 0 0 0 0)
New LoadShape.2130861659_PV_15March Npts=24 Interval=1 PMult=(0.0 0.0 0.0 0.0 0.0 0.0 0.00355871886120996 0.0604982206405694 0.444839857651246 1.09964412811388 1.58007117437722 1.92526690391459 2.12455516014235 2.06761565836299 1.52313167259786 0.896797153024911 0.775800711743772 0.295373665480427 0.0213523131672598 0.0 0.0 0.0 0.0 0.0 ) Qmult=(0 0 0 0 0 0 0 0 0 0 0 0 0 0 0 0 0 0 0 0 0 0 0 0)
New LoadShape.2171333306_PV_15March Npts=24 Interval=1 PMult=(0.0 0.0 0.0 0.0 0.0 0.0 0.0184615384615385 0.504615384615385 1.18153846153846 1.72 2.07076923076923 2.24923076923077 2.31384615384615 2.18769230769231 1.57846153846154 0.913846153846154 0.781538461538462 0.283076923076923 0.0246153846153846 0.0 0.0 0.0 0.0 0.0 ) Qmult=(0 0 0 0 0 0 0 0 0 0 0 0 0 0 0 0 0 0 0 0 0 0 0 0)
New LoadShape.6760824471_PV_15March Npts=24 Interval=1 PMult=(0.0 0.0 0.0 0.0 0.0 0.0 0.00833333333333333 0.25 0.658333333333333 1.48333333333333 1.85833333333333 2.05833333333333 2.1625 2.06666666666667 1.4875 0.8625 0.754166666666667 0.270833333333333 0.0208333333333333 0.0 0.0 0.0 0.0 0.0 ) Qmult=(0 0 0 0 0 0 0 0 0 0 0 0 0 0 0 0 0 0 0 0 0 0 0 0)
New LoadShape.9110924085_PV_15March Npts=24 Interval=1 PMult=(0.0 0.0 0.0 0.0 0.0 0.0 0.00451467268623025 0.0406320541760722 0.27765237020316 0.733634311512415 1.09932279909707 1.33408577878104 1.49661399548533 1.52144469525959 1.15575620767494 0.708803611738149 0.690744920993228 0.291196388261851 0.0203160270880361 0.0 0.0 0.0 0.0 0.0 ) Qmult=(0 0 0 0 0 0 0 0 0 0 0 0 0 0 0 0 0 0 0 0 0 0 0 0)
New LoadShape.3390728242_PV_15March Npts=24 Interval=1 PMult=(0.0 0.0 0.0 0.0 0.0 0.0 0.039426523297491 0.831541218637993 1.71326164874552 2.3010752688172 2.62724014336918 2.74910394265233 2.75268817204301 2.58781362007168 1.82795698924731 1.04659498207885 0.845878136200717 0.28673835125448 0.025089605734767 0.0 0.0 0.0 0.0 0.0 ) Qmult=(0 0 0 0 0 0 0 0 0 0 0 0 0 0 0 0 0 0 0 0 0 0 0 0)
New LoadShape.930166705_PV_15March Npts=24 Interval=1 PMult=(0.0 0.0 0.0 0.0 0.0 0.0 0.00282485875706215 0.155367231638418 0.627118644067796 1.13841807909605 1.51694915254237 1.74011299435028 1.86723163841808 1.82485875706215 1.34463276836158 0.785310734463277 0.700564971751412 0.23728813559322 0.0169491525423729 0.0 0.0 0.0 0.0 0.0 ) Qmult=(0 0 0 0 0 0 0 0 0 0 0 0 0 0 0 0 0 0 0 0 0 0 0 0)
New LoadShape.6520739349_PV_15March Npts=24 Interval=1 PMult=(0.155477855477855 0.155477855477855 0.155477855477855 0.155477855477855 0.155477855477855 0.155477855477855 0.242794485867334 0.754151698858471 0.949477198926343 1.41042384399728 2.2895484885993 3.19476288335103 3.25836699213046 3.44926567718957 2.52264309008344 1.26434487144929 1.08068385581925 0.346620046620047 0.164801864801865 0.155477855477855 0.155477855477855 0.155477855477855 0.155477855477855 0.155477855477855 ) Qmult=(0 0 0 0 0 0 0 0 0 0 0 0 0 0 0 0 0 0 0 0 0 0 0 0)
New LoadShape.2770509842_PV_15March Npts=24 Interval=1 PMult=(0.0 0.0 0.0 0.0 0.0 0.0 0.00265957446808511 0.0638297872340425 0.430851063829787 1.28989361702128 1.74734042553191 1.91223404255319 1.98404255319149 1.88297872340426 1.375 0.813829787234043 0.696808510638298 0.257978723404255 0.0186170212765957 0.0 0.0 0.0 0.0 0.0 ) Qmult=(0 0 0 0 0 0 0 0 0 0 0 0 0 0 0 0 0 0 0 0 0 0 0 0)
New LoadShape.8851885214_PV_15March Npts=24 Interval=1 PMult=(0.0 0.0 0.0 0.0 0.0 0.0 0.00591715976331361 0.272189349112426 0.745562130177515 1.24852071005917 1.61834319526627 1.83727810650888 1.96449704142012 1.92011834319527 1.40532544378698 0.825443786982249 0.745562130177515 0.289940828402367 0.0236686390532544 0.0 0.0 0.0 0.0 0.0 ) Qmult=(0 0 0 0 0 0 0 0 0 0 0 0 0 0 0 0 0 0 0 0 0 0 0 0)
New LoadShape.4761516920_PV_15March Npts=24 Interval=1 PMult=(0.04332294102364244 0.04332294102364244 0.04332294102364244 0.04332294102364244 0.04332294102364244 0.04332294102364244 0.06612550950707073 0.12892025478359936 0.19476224402282444 0.5113916363696765 0.8865533590602105 1.2413797590007756 1.359764985114164 1.4523352352293863 1.1044804310809997 0.5969879837956276 0.5929237412858379 0.31480422761268323 0.0993432301957017 0.04332294102364244 0.04332294102364244 0.04332294102364244 0.04332294102364244 0.04332294102364244 ) Qmult=(0 0 0 0 0 0 0 0 0 0 0 0 0 0 0 0 0 0 0 0 0 0 0 0)
New LoadShape.8252154045_PV_15March Npts=24 Interval=1 PMult=(0.0733773377337734 0.0733773377337734 0.0733773377337734 0.0733773377337734 0.0733773377337734 0.0733773377337734 0.111285846465441 0.210705257217034 0.322690559229264 0.899969008883206 1.59869780155017 2.23053165781914 2.45196858044441 2.61466994005977 1.98593386759714 1.06535087992491 0.8928639979609 0.305500550055006 0.0942794279427943 0.0733773377337734 0.0733773377337734 0.0733773377337734 0.0733773377337734 0.0733773377337734 ) Qmult=(0 0 0 0 0 0 0 0 0 0 0 0 0 0 0 0 0 0 0 0 0 0 0 0)
New LoadShape.8110338686_PV_15March Npts=24 Interval=1 PMult=(0.0 0.0 0.0 0.0 0.0 0.0 0.00512820512820513 0.179487179487179 0.812820512820513 1.09230769230769 1.27948717948718 1.56153846153846 1.74871794871795 1.92307692307692 1.43076923076923 0.823076923076923 0.735897435897436 0.282051282051282 0.0205128205128205 0.0 0.0 0.0 0.0 0.0 ) Qmult=(0 0 0 0 0 0 0 0 0 0 0 0 0 0 0 0 0 0 0 0 0 0 0 0)
New LoadShape.6770331899_PV_15March Npts=24 Interval=1 PMult=(0.0 0.0 0.0 0.0 0.0 0.0 0.0137614678899083 0.288990825688073 1.10550458715596 1.86697247706422 2.3256880733945 2.51834862385321 2.57798165137615 2.45412844036697 1.77981651376147 1.00917431192661 0.844036697247706 0.284403669724771 0.0229357798165138 0.0 0.0 0.0 0.0 0.0 ) Qmult=(0 0 0 0 0 0 0 0 0 0 0 0 0 0 0 0 0 0 0 0 0 0 0 0)
New LoadShape.6470871598_PV_15March Npts=24 Interval=1 PMult=(0.0 0.0 0.0 0.0 0.0 0.0 0.0028169014084507 0.0338028169014085 0.154929577464789 0.56056338028169 0.943661971830986 1.19718309859155 1.36619718309859 1.4169014084507 1.10704225352113 0.67887323943662 0.650704225352113 0.261971830985916 0.0197183098591549 0.0 0.0 0.0 0.0 0.0 ) Qmult=(0 0 0 0 0 0 0 0 0 0 0 0 0 0 0 0 0 0 0 0 0 0 0 0)
New LoadShape.3980166641_PV_15March Npts=24 Interval=1 PMult=(0.0 0.0 0.0 0.0 0.0 0.0 0.0 0.00611620795107034 0.171253822629969 0.629969418960245 1.0 1.25688073394495 1.43425076452599 1.46788990825688 1.12538226299694 0.669724770642202 0.654434250764526 0.223241590214067 0.0152905198776758 0.0 0.0 0.0 0.0 0.0 ) Qmult=(0 0 0 0 0 0 0 0 0 0 0 0 0 0 0 0 0 0 0 0 0 0 0 0)
New LoadShape.6680258881_PV_15March Npts=24 Interval=1 PMult=(0.0 0.0 0.0 0.0 0.0 0.0 0.00672645739910314 0.170403587443946 0.414798206278027 0.858744394618834 1.24663677130045 1.49551569506726 1.63677130044843 1.61210762331839 1.19730941704036 0.701793721973094 0.643497757847534 0.246636771300448 0.0201793721973094 0.0 0.0 0.0 0.0 0.0 ) Qmult=(0 0 0 0 0 0 0 0 0 0 0 0 0 0 0 0 0 0 0 0 0 0 0 0)
New LoadShape.7071490046_PV_15March Npts=24 Interval=1 PMult=(0.0 0.0 0.0 0.0 0.0 0.0 0.0 0.0283018867924528 0.160377358490566 0.569182389937107 0.937106918238994 1.19811320754717 1.38050314465409 1.41509433962264 1.10062893081761 0.669811320754717 0.647798742138365 0.273584905660377 0.0188679245283019 0.0 0.0 0.0 0.0 0.0 ) Qmult=(0 0 0 0 0 0 0 0 0 0 0 0 0 0 0 0 0 0 0 0 0 0 0 0)
New LoadShape.3440323737_PV_15March Npts=24 Interval=1 PMult=(0.0 0.0 0.0 0.0 0.0 0.0 0.0196850393700787 0.893700787401575 1.83464566929134 2.48031496062992 2.8503937007874 2.99606299212598 3.00393700787402 2.73622047244094 1.91732283464567 1.06299212598425 0.834645669291338 0.283464566929134 0.0236220472440945 0.0 0.0 0.0 0.0 0.0 ) Qmult=(0 0 0 0 0 0 0 0 0 0 0 0 0 0 0 0 0 0 0 0 0 0 0 0)