!PV

!PV from Meters
New Generator.DG_0450415761 bus1=SEP828409.2.0 phases=1 kW=0.8999999999999999 pf=1.0 kV=0.240 Basefreq=60 Model=7 Vminpu=0.95 Vmaxpu=1.05 status=variable daily=451439699_PV_15March !EQ4478 Delivered
New Generator.DG_2930281908 bus1=SEP828406.2.0 phases=1 kW=0.8599999999999999 pf=1.0 kV=0.240 Basefreq=60 Model=7 Vminpu=0.95 Vmaxpu=1.05 status=variable daily=2931291354_PV_15March !EQ4472 Delivered
New Generator.DG_1030455785 bus1=SEP680574.3.0 phases=1 kW=0.39 pf=1.0 kV=0.240 Basefreq=60 Model=7 Vminpu=0.95 Vmaxpu=1.05 status=variable daily=1030221544_PV_15March !EN5298 Delivered
New Generator.DG_4810535049 bus1=SEP413530.3.0 phases=1 kW=2.51 pf=1.0 kV=0.240 Basefreq=60 Model=7 Vminpu=0.95 Vmaxpu=1.05 status=variable daily=4812360182_PV_15March !EN5350 Delivered
New Generator.DG_7940993411 bus1=SEP611436.3.0 phases=1 kW=2.73 pf=1.0 kV=0.240 Basefreq=60 Model=7 Vminpu=0.95 Vmaxpu=1.05 status=variable daily=7940383629_PV_15March !EN5352 Delivered
New Generator.DG_0650220370 bus1=SEP611433.3.0 phases=1 kW=4.21 pf=1.0 kV=0.240 Basefreq=60 Model=7 Vminpu=0.95 Vmaxpu=1.05 status=variable daily=650613472_PV_15March !FD6232 Delivered
New Generator.DG_4620565229 bus1=SEP753983.3.0 phases=1 kW=2.37 pf=1.0 kV=0.240 Basefreq=60 Model=7 Vminpu=0.95 Vmaxpu=1.05 status=variable daily=4621689742_PV_15March !EQ4469 Delivered
New Generator.DG_8900220802 bus1=SEP619102.3.0 phases=1 kW=2.92 pf=1.0 kV=0.240 Basefreq=60 Model=7 Vminpu=0.95 Vmaxpu=1.05 status=variable daily=8900783215_PV_15March !EQ4468 Delivered
New Generator.DG_0541318811 bus1=SEP399715.3.0 phases=1 kW=4.07 pf=1.0 kV=0.240 Basefreq=60 Model=7 Vminpu=0.95 Vmaxpu=1.05 status=variable daily=541756159_PV_15March !EN4305 Delivered
New Generator.DG_7391159498 bus1=SEP413444.3.0 phases=1 kW=1.2 pf=1.0 kV=0.240 Basefreq=60 Model=7 Vminpu=0.95 Vmaxpu=1.05 status=variable daily=7390719920_PV_15March !EK8412 Delivered
New Generator.DG_1580828977 bus1=SEP838128.3.0 phases=1 kW=1.95 pf=1.0 kV=0.240 Basefreq=60 Model=7 Vminpu=0.95 Vmaxpu=1.05 status=variable daily=1582277049_PV_15March !EQ4485 Delivered
New Generator.DG_4561296720 bus1=SEP838128.3.0 phases=1 kW=1.1600000000000001 pf=1.0 kV=0.240 Basefreq=60 Model=7 Vminpu=0.95 Vmaxpu=1.05 status=variable daily=4561914544_PV_15March !EX9413 Delivered
New Generator.DG_5010486688 bus1=SEP838128.3.0 phases=1 kW=0.43 pf=1.0 kV=0.240 Basefreq=60 Model=7 Vminpu=0.95 Vmaxpu=1.05 status=variable daily=5011263477_PV_15March !EQ4430 Delivered
New Generator.DG_6170173417 bus1=SEP838128.3.0 phases=1 kW=1.02 pf=1.0 kV=0.240 Basefreq=60 Model=7 Vminpu=0.95 Vmaxpu=1.05 status=variable daily=6171127016_PV_15March !EQ4425 Delivered
New Generator.DG_6310173769 bus1=SEP838128.3.0 phases=1 kW=0.58 pf=1.0 kV=0.240 Basefreq=60 Model=7 Vminpu=0.95 Vmaxpu=1.05 status=variable daily=6311542843_PV_15March !EQ4433 Delivered
New Generator.DG_8641253325 bus1=SEP838129.3.0 phases=1 kW=1.08 pf=1.0 kV=0.240 Basefreq=60 Model=7 Vminpu=0.95 Vmaxpu=1.05 status=variable daily=8640842565_PV_15March !EQ4424 Delivered
New Generator.DG_2141174934 bus1=SEP838147.3.0 phases=1 kW=4.9399999999999995 pf=1.0 kV=0.240 Basefreq=60 Model=7 Vminpu=0.95 Vmaxpu=1.05 status=variable daily=2140407780_PV_15March !1053239 Delivered
New Generator.DG_4720160662 bus1=SEP838145.3.0 phases=1 kW=0.75 pf=1.0 kV=0.240 Basefreq=60 Model=7 Vminpu=0.95 Vmaxpu=1.05 status=variable daily=4720906192_PV_15March !EN4197 Delivered
New Generator.DG_5621106531 bus1=SEP838146.3.0 phases=1 kW=1.1600000000000001 pf=1.0 kV=0.240 Basefreq=60 Model=7 Vminpu=0.95 Vmaxpu=1.05 status=variable daily=5620392039_PV_15March !EN5292 Delivered
New Generator.DG_6410171539 bus1=SEP838144.3.0 phases=1 kW=2.3200000000000003 pf=1.0 kV=0.240 Basefreq=60 Model=7 Vminpu=0.95 Vmaxpu=1.05 status=variable daily=6411534274_PV_15March !FC0745 Delivered
New Generator.DG_9190927466 bus1=SEP933614.3.0 phases=1 kW=0.47000000000000003 pf=1.0 kV=0.240 Basefreq=60 Model=7 Vminpu=0.95 Vmaxpu=1.05 status=variable daily=9190282830_PV_15March !EN5317 Delivered
New Generator.DG_9721006925 bus1=SEP838148.3.0 phases=1 kW=1.26 pf=1.0 kV=0.240 Basefreq=60 Model=7 Vminpu=0.95 Vmaxpu=1.05 status=variable daily=9720792666_PV_15March !EQ4481 Delivered
New Generator.DG_4661003765 bus1=SEP838149.3.0 phases=1 kW=3.46 pf=1.0 kV=0.240 Basefreq=60 Model=7 Vminpu=0.95 Vmaxpu=1.05 status=variable daily=4660361595_PV_15March !EN5290 Delivered
New Generator.DG_4681265191 bus1=SEP933616.3.0 phases=1 kW=2.31 pf=1.0 kV=0.240 Basefreq=60 Model=7 Vminpu=0.95 Vmaxpu=1.05 status=variable daily=4681643627_PV_15March !FX7289 Delivered
New Generator.DG_5100896288 bus1=SEP933615.3.0 phases=1 kW=0.7899999999999999 pf=1.0 kV=0.240 Basefreq=60 Model=7 Vminpu=0.95 Vmaxpu=1.05 status=variable daily=5101495921_PV_15March !FC1243 Delivered
New Generator.DG_5431224726 bus1=SEP838152.3.0 phases=1 kW=3.448 pf=1.0 kV=0.240 Basefreq=60 Model=7 Vminpu=0.95 Vmaxpu=1.05 status=variable daily=5431767340_PV_15March !1144282 Delivered
New Generator.DG_5471308919 bus1=SEP838151.3.0 phases=1 kW=0.55 pf=1.0 kV=0.240 Basefreq=60 Model=7 Vminpu=0.95 Vmaxpu=1.05 status=variable daily=5470888249_PV_15March !EN5295 Delivered
New Generator.DG_6430422274 bus1=SEP838150.3.0 phases=1 kW=0.76 pf=1.0 kV=0.240 Basefreq=60 Model=7 Vminpu=0.95 Vmaxpu=1.05 status=variable daily=6430638642_PV_15March !EN5289 Delivered
New Generator.DG_7860350736 bus1=SEP838149.3.0 phases=1 kW=1.58 pf=1.0 kV=0.240 Basefreq=60 Model=7 Vminpu=0.95 Vmaxpu=1.05 status=variable daily=7860311383_PV_15March !GE5705 Delivered
New Generator.DG_5160181314 bus1=SEP838142.3.0 phases=1 kW=3.2 pf=1.0 kV=0.240 Basefreq=60 Model=7 Vminpu=0.95 Vmaxpu=1.05 status=variable daily=5161537618_PV_15March !EQ4480 Delivered
New Generator.DG_9190074336 bus1=SEP933617.3.0 phases=1 kW=2.75 pf=1.0 kV=0.240 Basefreq=60 Model=7 Vminpu=0.95 Vmaxpu=1.05 status=variable daily=9191224199_PV_15March !DT1321 Delivered
New Generator.DG_8830773597 bus1=SEP838155.3.0 phases=1 kW=3.7199999999999998 pf=1.0 kV=0.240 Basefreq=60 Model=7 Vminpu=0.95 Vmaxpu=1.05 status=variable daily=8831933172_PV_15March !GC5364 Delivered
New Generator.DG_1090607729_1 bus1=SEP450173.2.0 phases=1 kW=1.4000000000000001 pf=1.0 kV=0.240 Basefreq=60 Model=7 Vminpu=0.95 Vmaxpu=1.05 status=variable daily=1091625436_PV_15March !FR2869 Delivered
New Generator.DG_1090607729_2 bus1=SEP450173.2.0 phases=1 kW=1.1400000000000001 pf=1.0 kV=0.240 Basefreq=60 Model=7 Vminpu=0.95 Vmaxpu=1.05 status=variable daily=1091625436_PV_15March !EQ4432 Delivered
New Generator.DG_5610389151 bus1=SEP450175.2.0 phases=1 kW=1.13 pf=1.0 kV=0.240 Basefreq=60 Model=7 Vminpu=0.95 Vmaxpu=1.05 status=variable daily=5610497025_PV_15March !EQ4486 Delivered
New Generator.DG_6201062743 bus1=SEP454436.2.0 phases=1 kW=0.5399999999999999 pf=1.0 kV=0.240 Basefreq=60 Model=7 Vminpu=0.95 Vmaxpu=1.05 status=variable daily=6200700400_PV_15March !EQ4487 Delivered
New Generator.DG_0200605351 bus1=SEP838135.2.0 phases=1 kW=1.07 pf=1.0 kV=0.240 Basefreq=60 Model=7 Vminpu=0.95 Vmaxpu=1.05 status=variable daily=200855329_PV_15March !EN5374 Delivered
New Generator.DG_1250362812 bus1=SEP838134.2.0 phases=1 kW=1.0 pf=1.0 kV=0.240 Basefreq=60 Model=7 Vminpu=0.95 Vmaxpu=1.05 status=variable daily=1252027968_PV_15March !EN5376 Delivered
New Generator.DG_1660354435 bus1=SEP838137.2.0 phases=1 kW=0.42 pf=1.0 kV=0.240 Basefreq=60 Model=7 Vminpu=0.95 Vmaxpu=1.05 status=variable daily=1662291303_PV_15March !EN5310 Delivered
New Generator.DG_5711015823 bus1=SEP894797.2.0 phases=1 kW=0.37 pf=1.0 kV=0.240 Basefreq=60 Model=7 Vminpu=0.95 Vmaxpu=1.05 status=variable daily=5710784846_PV_15March !EQ4460 Delivered
New Generator.DG_6780528117 bus1=SEP838134.2.0 phases=1 kW=1.1099999999999999 pf=1.0 kV=0.240 Basefreq=60 Model=7 Vminpu=0.95 Vmaxpu=1.05 status=variable daily=6780944360_PV_15March !EQ4505 Delivered
New Generator.DG_0010402581 bus1=SEP838132.2.0 phases=1 kW=0.95 pf=1.0 kV=0.240 Basefreq=60 Model=7 Vminpu=0.95 Vmaxpu=1.05 status=variable daily=10320098_PV_15March !EN5312 Delivered
New Generator.DG_0711126750 bus1=SEP838133.2.0 phases=1 kW=0.8599999999999999 pf=1.0 kV=0.240 Basefreq=60 Model=7 Vminpu=0.95 Vmaxpu=1.05 status=variable daily=710525704_PV_15March !EN5309 Delivered
New Generator.DG_2570246964 bus1=SEP933612.2.0 phases=1 kW=0.96 pf=1.0 kV=0.240 Basefreq=60 Model=7 Vminpu=0.95 Vmaxpu=1.05 status=variable daily=2571237851_PV_15March !EN5375 Delivered
New Generator.DG_4250887384 bus1=SEP838131.2.0 phases=1 kW=0.95 pf=1.0 kV=0.240 Basefreq=60 Model=7 Vminpu=0.95 Vmaxpu=1.05 status=variable daily=4250277748_PV_15March !EN5311 Delivered
New Generator.DG_6491180146 bus1=SEP933611.2.0 phases=1 kW=0.95 pf=1.0 kV=0.240 Basefreq=60 Model=7 Vminpu=0.95 Vmaxpu=1.05 status=variable daily=6491014544_PV_15March !EQ4507 Delivered
New Generator.DG_7400427158 bus1=SEP838138.2.0 phases=1 kW=0.98 pf=1.0 kV=0.240 Basefreq=60 Model=7 Vminpu=0.95 Vmaxpu=1.05 status=variable daily=7400317484_PV_15March !EN5373 Delivered
New Generator.DG_6500089854 bus1=SEP482845.1.0 phases=1 kW=2.01 pf=1.0 kV=0.240 Basefreq=60 Model=7 Vminpu=0.95 Vmaxpu=1.05 status=variable daily=6501485646_PV_15March !EN4285 Delivered
New Generator.DG_1201021481 bus1=SEP485110.1.0 phases=1 kW=1.53 pf=1.0 kV=0.240 Basefreq=60 Model=7 Vminpu=0.95 Vmaxpu=1.05 status=variable daily=1200379460_PV_15March !EG0803 Delivered
New Generator.DG_8110606905 bus1=SEP476797.1.0 phases=1 kW=4.64 pf=1.0 kV=0.240 Basefreq=60 Model=7 Vminpu=0.95 Vmaxpu=1.05 status=variable daily=8112074760_PV_15March !FC9755 Delivered
New Generator.DG_9160091818 bus1=SEP485108.1.0 phases=1 kW=3.2199999999999998 pf=1.0 kV=0.240 Basefreq=60 Model=7 Vminpu=0.95 Vmaxpu=1.05 status=variable daily=9161962921_PV_15March !EN4288 Delivered
New Generator.DG_1641224217 bus1=SEP477064.1.0 phases=1 kW=3.26 pf=1.0 kV=0.240 Basefreq=60 Model=7 Vminpu=0.95 Vmaxpu=1.05 status=variable daily=1641026712_PV_15March !GF8300 Delivered
New Generator.DG_7890911907 bus1=SEP731858.2.0 phases=1 kW=3.12 pf=1.0 kV=0.240 Basefreq=60 Model=7 Vminpu=0.95 Vmaxpu=1.05 status=variable daily=7891411831_PV_15March !EX3597 Delivered
New Generator.DG_1841117025 bus1=SEP491062.2.0 phases=1 kW=3.29 pf=1.0 kV=0.240 Basefreq=60 Model=7 Vminpu=0.95 Vmaxpu=1.05 status=variable daily=1840529166_PV_15March !EJ4043 Delivered
New Generator.DG_6020374887 bus1=SEP681840.2.0 phases=1 kW=2.65 pf=1.0 kV=0.240 Basefreq=60 Model=7 Vminpu=0.95 Vmaxpu=1.05 status=variable daily=6020312645_PV_15March !EE6274 Delivered
New Generator.DG_2570510530 bus1=SEP720624.2.0 phases=1 kW=1.85 pf=1.0 kV=0.240 Basefreq=60 Model=7 Vminpu=0.95 Vmaxpu=1.05 status=variable daily=2570456096_PV_15March !GE6003 Delivered
New Generator.DG_7630909518 bus1=SEP301538.2.0 phases=1 kW=0.92 pf=1.0 kV=0.240 Basefreq=60 Model=7 Vminpu=0.95 Vmaxpu=1.05 status=variable daily=7631830537_PV_15March !GF8736 Delivered
New Generator.DG_0870362422 bus1=SEP698031.1.0 phases=1 kW=3.63 pf=1.0 kV=0.240 Basefreq=60 Model=7 Vminpu=0.95 Vmaxpu=1.05 status=variable daily=870608448_PV_15March !GA2140 Delivered
New Generator.DG_5790911391 bus1=SEP851292.1.0 phases=1 kW=3.6199999999999997 pf=1.0 kV=0.240 Basefreq=60 Model=7 Vminpu=0.95 Vmaxpu=1.05 status=variable daily=5791498433_PV_15March !FC7833 Delivered
New Generator.DG_9070737381 bus1=SEP851290.1.0 phases=1 kW=3.25 pf=1.0 kV=0.240 Basefreq=60 Model=7 Vminpu=0.95 Vmaxpu=1.05 status=variable daily=9071811938_PV_15March !EJ4041 Delivered
New Generator.DG_5750626352 bus1=SEP851287.1.0 phases=1 kW=3.61 pf=1.0 kV=0.240 Basefreq=60 Model=7 Vminpu=0.95 Vmaxpu=1.05 status=variable daily=5750285124_PV_15March !GF8017 Delivered
New Generator.DG_2130733000 bus1=SEP922786.1.0 phases=1 kW=2.81 pf=1.0 kV=0.240 Basefreq=60 Model=7 Vminpu=0.95 Vmaxpu=1.05 status=variable daily=2130861659_PV_15March !EJ4042 Delivered
New Generator.DG_2171003915 bus1=SEP525482.1.0 phases=1 kW=3.25 pf=1.0 kV=0.240 Basefreq=60 Model=7 Vminpu=0.95 Vmaxpu=1.05 status=variable daily=2171333306_PV_15March !GF8427 Delivered
New Generator.DG_6760172295 bus1=SEP720621.1.0 phases=1 kW=2.4 pf=1.0 kV=0.240 Basefreq=60 Model=7 Vminpu=0.95 Vmaxpu=1.05 status=variable daily=6760824471_PV_15March !DX0685 Delivered
New Generator.DG_9110575325 bus1=SEP698032.1.0 phases=1 kW=4.43 pf=1.0 kV=0.240 Basefreq=60 Model=7 Vminpu=0.95 Vmaxpu=1.05 status=variable daily=9110924085_PV_15March !EQ4087 Delivered
New Generator.DG_3390495086 bus1=SEP698062.1.0 phases=1 kW=2.79 pf=1.0 kV=0.240 Basefreq=60 Model=7 Vminpu=0.95 Vmaxpu=1.05 status=variable daily=3390728242_PV_15March !FC8245 Delivered
New Generator.DG_0930811168 bus1=SEP720620.1.0 phases=1 kW=3.54 pf=1.0 kV=0.240 Basefreq=60 Model=7 Vminpu=0.95 Vmaxpu=1.05 status=variable daily=930166705_PV_15March !EJ4044 Delivered
New Generator.DG_6520548076 bus1=SEP484957.2.0 phases=1 kW=1.4300000000000002 pf=1.0 kV=0.240 Basefreq=60 Model=7 Vminpu=0.95 Vmaxpu=1.05 status=variable daily=6520739349_PV_15March !1135996 Delivered
New Generator.DG_2770641858 bus1=SEP698067.1.0 phases=1 kW=3.7600000000000002 pf=1.0 kV=0.240 Basefreq=60 Model=7 Vminpu=0.95 Vmaxpu=1.05 status=variable daily=2770509842_PV_15March !GE8798 Delivered
New Generator.DG_8851025710 bus1=SEP485186.2.0 phases=1 kW=3.38 pf=1.0 kV=0.240 Basefreq=60 Model=7 Vminpu=0.95 Vmaxpu=1.05 status=variable daily=8851885214_PV_15March !GJ5075 Delivered
New Generator.DG_4760493658 bus1=SEP484958.2.0 phases=1 kW=5.132 pf=1.0 kV=0.240 Basefreq=60 Model=7 Vminpu=0.95 Vmaxpu=1.05 status=variable daily=4761516920_PV_15March !1065100 Delivered !OrigkW=5.132
New Generator.DG_8250472702 bus1=SEP484957.2.0 phases=1 kW=3.03 pf=1.0 kV=0.240 Basefreq=60 Model=7 Vminpu=0.95 Vmaxpu=1.05 status=variable daily=8252154045_PV_15March !EJ4062 Delivered
New Generator.DG_8110608539 bus1=SEP485188.2.0 phases=1 kW=3.9000000000000004 pf=1.0 kV=0.240 Basefreq=60 Model=7 Vminpu=0.95 Vmaxpu=1.05 status=variable daily=8110338686_PV_15March !ER8904 Delivered
New Generator.DG_6771108112 bus1=SEP485207.2.0 phases=1 kW=2.18 pf=1.0 kV=0.240 Basefreq=60 Model=7 Vminpu=0.95 Vmaxpu=1.05 status=variable daily=6770331899_PV_15March !EJ3799 Delivered
New Generator.DG_6471242554 bus1=SEP481339.2.0 phases=1 kW=3.55 pf=1.0 kV=0.240 Basefreq=60 Model=7 Vminpu=0.95 Vmaxpu=1.05 status=variable daily=6470871598_PV_15March !EG0822 Delivered
New Generator.DG_3980846541 bus1=SEP867167.2.0 phases=1 kW=3.2700000000000005 pf=1.0 kV=0.240 Basefreq=60 Model=7 Vminpu=0.95 Vmaxpu=1.05 status=variable daily=3980166641_PV_15March !GC7438 Delivered
New Generator.DG_6680708102 bus1=SEP481343.2.0 phases=1 kW=4.46 pf=1.0 kV=0.240 Basefreq=60 Model=7 Vminpu=0.95 Vmaxpu=1.05 status=variable daily=6680258881_PV_15March !FR4067 Delivered
New Generator.DG_7070051386 bus1=SEP481344.2.0 phases=1 kW=3.18 pf=1.0 kV=0.240 Basefreq=60 Model=7 Vminpu=0.95 Vmaxpu=1.05 status=variable daily=7071490046_PV_15March !GE7825 Delivered
New Generator.DG_3440456540 bus1=SEP906215.2.0 phases=1 kW=2.54 pf=1.0 kV=0.240 Basefreq=60 Model=7 Vminpu=0.95 Vmaxpu=1.05 status=variable daily=3440323737_PV_15March !DM6396 Delivered
New Generator.DG_4260381691 bus1=SEP481347.2.0 phases=1 kW=4.07 pf=1.0 kV=0.240 Basefreq=60 Model=7 Vminpu=0.95 Vmaxpu=1.05 status=variable daily=4260214405_PV_15March !GC7477 Delivered
New Generator.DG_7160125363 bus1=SEP481354.2.0 phases=1 kW=3.886 pf=1.0 kV=0.240 Basefreq=60 Model=7 Vminpu=0.95 Vmaxpu=1.05 status=variable daily=7160768879_PV_15March !1145608 Delivered !OrigkW=3.886
New Generator.DG_7810180391 bus1=SEP960573.2.0 phases=1 kW=2.98 pf=1.0 kV=0.240 Basefreq=60 Model=7 Vminpu=0.95 Vmaxpu=1.05 status=variable daily=7810778509_PV_15March !EW6246 Delivered
New Generator.DG_0080186020 bus1=SEP682162.2.0 phases=1 kW=2.07 pf=1.0 kV=0.240 Basefreq=60 Model=7 Vminpu=0.95 Vmaxpu=1.05 status=variable daily=81897711_PV_15March !EK8388 Delivered
New Generator.DG_1631165414 bus1=SEP525249.2.0 phases=1 kW=0.13 pf=1.0 kV=0.240 Basefreq=60 Model=7 Vminpu=0.95 Vmaxpu=1.05 status=variable daily=1630724138_PV_15March !EK8387 Delivered
New Generator.DG_1070664654 bus1=SEP682139.2.0 phases=1 kW=1.9400000000000002 pf=1.0 kV=0.240 Basefreq=60 Model=7 Vminpu=0.95 Vmaxpu=1.05 status=variable daily=1070354139_PV_15March !GC3841 Delivered
New Generator.DG_5820437289 bus1=SEP683344.2.0 phases=1 kW=3.26 pf=1.0 kV=0.240 Basefreq=60 Model=7 Vminpu=0.95 Vmaxpu=1.05 status=variable daily=5820224792_PV_15March !GJ7732 Delivered
New Generator.DG_6890827265 bus1=SEP960571.2.0 phases=1 kW=4.72 pf=1.0 kV=0.240 Basefreq=60 Model=7 Vminpu=0.95 Vmaxpu=1.05 status=variable daily=6890168893_PV_15March !FJ7754 Delivered
New Generator.DG_8581004376 bus1=SEP677737.1.0 phases=1 kW=1.23 pf=1.0 kV=0.240 Basefreq=60 Model=7 Vminpu=0.95 Vmaxpu=1.05 status=variable daily=8580388641_PV_15March !FX6881 Delivered
New Generator.DG_0480755571 bus1=SEP882337.1.0 phases=1 kW=2.35 pf=1.0 kV=0.240 Basefreq=60 Model=7 Vminpu=0.95 Vmaxpu=1.05 status=variable daily=480875589_PV_15March !GE6253 Delivered
New Generator.DG_4380214630 bus1=SEP682152.1.0 phases=1 kW=3.4299999999999997 pf=1.0 kV=0.240 Basefreq=60 Model=7 Vminpu=0.95 Vmaxpu=1.05 status=variable daily=4380610090_PV_15March !FC1526 Delivered
New Generator.DG_8400296471 bus1=SEP682153.1.0 phases=1 kW=2.02 pf=1.0 kV=0.240 Basefreq=60 Model=7 Vminpu=0.95 Vmaxpu=1.05 status=variable daily=8401242091_PV_15March !FD6508 Delivered
New Generator.DG_8410698234 bus1=SEP551644.2.0 phases=1 kW=3.76 pf=1.0 kV=0.240 Basefreq=60 Model=7 Vminpu=0.95 Vmaxpu=1.05 status=variable daily=8411794716_PV_15March !GJ7037 Delivered
New Generator.DG_1890226444 bus1=SEP550193.2.0 phases=1 kW=2.8600000000000003 pf=1.0 kV=0.240 Basefreq=60 Model=7 Vminpu=0.95 Vmaxpu=1.05 status=variable daily=1891369831_PV_15March !GC3852 Delivered
New Generator.DG_9440168335 bus1=SEP543398.2.0 phases=1 kW=1.56 pf=1.0 kV=0.240 Basefreq=60 Model=7 Vminpu=0.95 Vmaxpu=1.05 status=variable daily=9441295822_PV_15March !EC6332 Delivered
New Generator.DG_3170538535 bus1=SEP543442.1.0 phases=1 kW=4.26 pf=1.0 kV=0.240 Basefreq=60 Model=7 Vminpu=0.95 Vmaxpu=1.05 status=variable daily=3171325993_PV_15March !1071503 Delivered
New Generator.DG_3090613186 bus1=SEP550508.1.0 phases=1 kW=2.65 pf=1.0 kV=0.240 Basefreq=60 Model=7 Vminpu=0.95 Vmaxpu=1.05 status=variable daily=3090342570_PV_15March !FF0775 Received
New Generator.DG_9600514747 bus1=SEP872548.1.0 phases=1 kW=4.355 pf=1.0 kV=0.240 Basefreq=60 Model=7 Vminpu=0.95 Vmaxpu=1.05 status=variable daily=9603014411_PV_15March !1067518 Delivered !OrigkW=4.355
New Generator.DG_0840590234 bus1=SEP550495.1.0 phases=1 kW=5.37 pf=1.0 kV=0.240 Basefreq=60 Model=7 Vminpu=0.95 Vmaxpu=1.05 status=variable daily=840464831_PV_15March !1098015 Delivered
New Generator.DG_2264460181 bus1=SEP950479.1.0 phases=1 kW=3.46 pf=1.0 kV=0.240 Basefreq=60 Model=7 Vminpu=0.95 Vmaxpu=1.05 status=variable daily=2260362958_PV_15March !1043889 Delivered
New Generator.DG_7150839506 bus1=SEP950479.1.0 phases=1 kW=2.8000000000000003 pf=1.0 kV=0.240 Basefreq=60 Model=7 Vminpu=0.95 Vmaxpu=1.05 status=variable daily=7150683270_PV_15March !FE5467 Delivered
New Generator.DG_0240069081 bus1=SEP554956.1.0 phases=1 kW=2.84 pf=1.0 kV=0.240 Basefreq=60 Model=7 Vminpu=0.95 Vmaxpu=1.05 status=variable daily=241493864_PV_15March !EK8403 Delivered
New Generator.DG_3350193054 bus1=SEP554952.1.0 phases=1 kW=1.77 pf=1.0 kV=0.240 Basefreq=60 Model=7 Vminpu=0.95 Vmaxpu=1.05 status=variable daily=3350242627_PV_15March !FD4189 Delivered
New Generator.DG_6071129171 bus1=SEP554955.1.0 phases=1 kW=4.805 pf=1.0 kV=0.240 Basefreq=60 Model=7 Vminpu=0.95 Vmaxpu=1.05 status=variable daily=6070400361_PV_15March !1139739 Delivered !OrigkW=4.805
New Generator.DG_1421221244 bus1=SEP550477.1.0 phases=1 kW=3.42 pf=1.0 kV=0.240 Basefreq=60 Model=7 Vminpu=0.95 Vmaxpu=1.05 status=variable daily=1421757546_PV_15March !1135645 Delivered
New Generator.DG_4780926315 bus1=SEP911890.1.0 phases=1 kW=4.13 pf=1.0 kV=0.240 Basefreq=60 Model=7 Vminpu=0.95 Vmaxpu=1.05 status=variable daily=4780281752_PV_15March !1084815 Delivered
New Generator.DG_2038748176 bus1=SEP549884.2.0 phases=1 kW=2.731 pf=1.0 kV=0.240 Basefreq=60 Model=7 Vminpu=0.95 Vmaxpu=1.05 status=variable daily=2033821000_PV_15March !1065709 Delivered
New Generator.DG_6010742527 bus1=SEP547755.2.0 phases=1 kW=1.27 pf=1.0 kV=0.240 Basefreq=60 Model=7 Vminpu=0.95 Vmaxpu=1.05 status=variable daily=6010299502_PV_15March !GF8335 Delivered
New Generator.DG_7481271468 bus1=SEP547757.2.0 phases=1 kW=1.784 pf=1.0 kV=0.240 Basefreq=60 Model=7 Vminpu=0.95 Vmaxpu=1.05 status=variable daily=7480869746_PV_15March !1065364 Delivered
New Generator.DG_4840051171 bus1=SEP545669.2.0 phases=1 kW=3.31 pf=1.0 kV=0.240 Basefreq=60 Model=7 Vminpu=0.95 Vmaxpu=1.05 status=variable daily=4841387184_PV_15March !1043786 Delivered
New Generator.DG_6540859095 bus1=SEP547374.2.0 phases=1 kW=2.55 pf=1.0 kV=0.240 Basefreq=60 Model=7 Vminpu=0.95 Vmaxpu=1.05 status=variable daily=6540166873_PV_15March !FX9640 Delivered
New Generator.DG_0030914514 bus1=SEP549878.2.0 phases=1 kW=4.277 pf=1.0 kV=0.240 Basefreq=60 Model=7 Vminpu=0.95 Vmaxpu=1.05 status=variable daily=30580885_PV_15March !1145287 Delivered !OrigkW=4.277
New Generator.DG_5390567218 bus1=SEP549882.2.0 phases=1 kW=2.9399999999999995 pf=1.0 kV=0.240 Basefreq=60 Model=7 Vminpu=0.95 Vmaxpu=1.05 status=variable daily=5392155488_PV_15March !1085643 Delivered
New Generator.DG_5810973073 bus1=SEP911490.2.0 phases=1 kW=3.084 pf=1.0 kV=0.240 Basefreq=60 Model=7 Vminpu=0.95 Vmaxpu=1.05 status=variable daily=5811052391_PV_15March !1065209 Delivered
New Generator.DG_0661217107 bus1=SEP547748.2.0 phases=1 kW=2.13 pf=1.0 kV=0.240 Basefreq=60 Model=7 Vminpu=0.95 Vmaxpu=1.05 status=variable daily=660604007_PV_15March !GD0222 Delivered
New Generator.DG_1240563566 bus1=SEP950235.2.0 phases=1 kW=3.833 pf=1.0 kV=0.240 Basefreq=60 Model=7 Vminpu=0.95 Vmaxpu=1.05 status=variable daily=1240452198_PV_15March !1142324 Delivered
New Generator.DG_3330169835 bus1=SEP549891.2.0 phases=1 kW=3.344 pf=1.0 kV=0.240 Basefreq=60 Model=7 Vminpu=0.95 Vmaxpu=1.05 status=variable daily=3330244205_PV_15March !1145466 Delivered !OrigkW=3.344
New Generator.DG_5550436694 bus1=SEP549889.2.0 phases=1 kW=3.1599999999999997 pf=1.0 kV=0.240 Basefreq=60 Model=7 Vminpu=0.95 Vmaxpu=1.05 status=variable daily=5550224755_PV_15March !GC6441 Delivered
New Generator.DG_2210272466 bus1=SEP58945.3.0 phases=1 kW=3.24 pf=1.0 kV=0.240 Basefreq=60 Model=7 Vminpu=0.95 Vmaxpu=1.05 status=variable daily=2212338574_PV_15March !EQ4492 Delivered
New Generator.DG_4410331072 bus1=SEP904658.3.0 phases=1 kW=1.35 pf=1.0 kV=0.240 Basefreq=60 Model=7 Vminpu=0.95 Vmaxpu=1.05 status=variable daily=4410627732_PV_15March !ER9364 Delivered
New Generator.DG_0760194878 bus1=SEP90536.3.0 phases=1 kW=3.3400000000000003 pf=1.0 kV=0.240 Basefreq=60 Model=7 Vminpu=0.95 Vmaxpu=1.05 status=variable daily=761241313_PV_15March !EN5365 Delivered
New Generator.DG_4860050353 bus1=SEP90538.3.0 phases=1 kW=3.21 pf=1.0 kV=0.240 Basefreq=60 Model=7 Vminpu=0.95 Vmaxpu=1.05 status=variable daily=4862178939_PV_15March !EQ4084 Delivered
New Generator.DG_0530379600 bus1=SEP81258.3.0 phases=1 kW=3.3 pf=1.0 kV=0.240 Basefreq=60 Model=7 Vminpu=0.95 Vmaxpu=1.05 status=variable daily=531345473_PV_15March !EN4444 Delivered
New Generator.DG_3220563830 bus1=SEP81269.3.0 phases=1 kW=3.17 pf=1.0 kV=0.240 Basefreq=60 Model=7 Vminpu=0.95 Vmaxpu=1.05 status=variable daily=3222360361_PV_15March !EN5313 Delivered
New Generator.DG_4530829513 bus1=SEP897544.3.0 phases=1 kW=3.242 pf=1.0 kV=0.240 Basefreq=60 Model=7 Vminpu=0.95 Vmaxpu=1.05 status=variable daily=4532386629_PV_15March !1067821 Delivered
New Generator.DG_9221298967 bus1=SEP81268.3.0 phases=1 kW=2.4799999999999995 pf=1.0 kV=0.240 Basefreq=60 Model=7 Vminpu=0.95 Vmaxpu=1.05 status=variable daily=9221703149_PV_15March !DM6358 Delivered
New Generator.DG_1720569571 bus1=SEP935926.1.0 phases=1 kW=3.4699999999999998 pf=1.0 kV=0.240 Basefreq=60 Model=7 Vminpu=0.95 Vmaxpu=1.05 status=variable daily=1720449743_PV_15March !EE3093 Delivered
New Generator.DG_6450558671 bus1=SEP60010.1.0 phases=1 kW=1.37 pf=1.0 kV=0.240 Basefreq=60 Model=7 Vminpu=0.95 Vmaxpu=1.05 status=variable daily=6451702086_PV_15March !EN5296 Delivered
New Generator.DG_5160318889 bus1=SEP59122.1.0 phases=1 kW=3.9699999999999998 pf=1.0 kV=0.240 Basefreq=60 Model=7 Vminpu=0.95 Vmaxpu=1.05 status=variable daily=5162029361_PV_15March !DT2495 Delivered
New Generator.DG_8480283856 bus1=SEP59121.1.0 phases=1 kW=5.1899999999999995 pf=1.0 kV=0.240 Basefreq=60 Model=7 Vminpu=0.95 Vmaxpu=1.05 status=variable daily=8480537159_PV_15March !EN5342 Delivered
New Generator.DG_1521256763 bus1=SEP90853.1.0 phases=1 kW=1.13 pf=1.0 kV=0.240 Basefreq=60 Model=7 Vminpu=0.95 Vmaxpu=1.05 status=variable daily=1520694778_PV_15March !FR4287 Delivered
New Generator.DG_3480216900 bus1=SEP90868.1.0 phases=1 kW=3.3500000000000005 pf=1.0 kV=0.240 Basefreq=60 Model=7 Vminpu=0.95 Vmaxpu=1.05 status=variable daily=3480250255_PV_15March !EN5343 Delivered
New Generator.DG_6681027854 bus1=SEP59116.1.0 phases=1 kW=3.51 pf=1.0 kV=0.240 Basefreq=60 Model=7 Vminpu=0.95 Vmaxpu=1.05 status=variable daily=6680988928_PV_15March !EN5294 Delivered
New Generator.DG_9530444190 bus1=SEP943446.1.0 phases=1 kW=1.56 pf=1.0 kV=0.240 Basefreq=60 Model=7 Vminpu=0.95 Vmaxpu=1.05 status=variable daily=9532042795_PV_15March !DP6247 Delivered
New Generator.DG_0290961415 bus1=SEP59037.1.0 phases=1 kW=3.029 pf=1.0 kV=0.240 Basefreq=60 Model=7 Vminpu=0.95 Vmaxpu=1.05 status=variable daily=291334074_PV_15March !1145610 Delivered !OrigkW=3.029
New Generator.DG_9941009041 bus1=SEP935927.1.0 phases=1 kW=2.47 pf=1.0 kV=0.240 Basefreq=60 Model=7 Vminpu=0.95 Vmaxpu=1.05 status=variable daily=9941866538_PV_15March !FC1263 Delivered
New Generator.DG_1070360183 bus1=SEP49421.2.0 phases=1 kW=2.4699999999999998 pf=1.0 kV=0.240 Basefreq=60 Model=7 Vminpu=0.95 Vmaxpu=1.05 status=variable daily=1070545873_PV_15March !EN5315 Delivered
New Generator.DG_6450848386 bus1=SEP49422.2.0 phases=1 kW=1.6799999999999997 pf=1.0 kV=0.240 Basefreq=60 Model=7 Vminpu=0.95 Vmaxpu=1.05 status=variable daily=6450683501_PV_15March !EN5314 Delivered
New Generator.DG_8190720004 bus1=SEP49426.2.0 phases=1 kW=2.8600000000000003 pf=1.0 kV=0.240 Basefreq=60 Model=7 Vminpu=0.95 Vmaxpu=1.05 status=variable daily=8191111844_PV_15March !EN5293 Delivered
New Generator.DG_8330375880 bus1=SEP49416.2.0 phases=1 kW=3.29 pf=1.0 kV=0.240 Basefreq=60 Model=7 Vminpu=0.95 Vmaxpu=1.05 status=variable daily=8330620561_PV_15March !EJ4601 Delivered
New Generator.DG_9620264902 bus1=SEP58701.2.0 phases=1 kW=3.46 pf=1.0 kV=0.240 Basefreq=60 Model=7 Vminpu=0.95 Vmaxpu=1.05 status=variable daily=9622333156_PV_15March !EC2449 Delivered
New Generator.DG_1840061637 bus1=SEP49412.2.0 phases=1 kW=1.77 pf=1.0 kV=0.240 Basefreq=60 Model=7 Vminpu=0.95 Vmaxpu=1.05 status=variable daily=1842207473_PV_15March !EN5344 Delivered
New Generator.DG_9661101527 bus1=SEP59057.2.0 phases=1 kW=2.86 pf=1.0 kV=0.240 Basefreq=60 Model=7 Vminpu=0.95 Vmaxpu=1.05 status=variable daily=9661449939_PV_15March !GE4740 Delivered
New Generator.DG_8130367535 bus1=SEP897103.2.0 phases=1 kW=1.5399999999999998 pf=1.0 kV=0.240 Basefreq=60 Model=7 Vminpu=0.95 Vmaxpu=1.05 status=variable daily=8130306638_PV_15March !EN5341 Delivered
New Generator.DG_1791311145 bus1=SEP81281.3.0 phases=1 kW=1.8299999999999998 pf=1.0 kV=0.240 Basefreq=60 Model=7 Vminpu=0.95 Vmaxpu=1.05 status=variable daily=1790197377_PV_15March !EE3080 Delivered
New Generator.DG_7781039080 bus1=SEP89983.3.0 phases=1 kW=0.7899999999999999 pf=1.0 kV=0.240 Basefreq=60 Model=7 Vminpu=0.95 Vmaxpu=1.05 status=variable daily=7781882019_PV_15March !EN2866 Delivered
New Generator.DG_9530220131 bus1=SEP81283.3.0 phases=1 kW=1.22 pf=1.0 kV=0.240 Basefreq=60 Model=7 Vminpu=0.95 Vmaxpu=1.05 status=variable daily=9530607670_PV_15March !EN5361 Delivered
New Generator.DG_2891013972 bus1=SEP89987.3.0 phases=1 kW=2.84 pf=1.0 kV=0.240 Basefreq=60 Model=7 Vminpu=0.95 Vmaxpu=1.05 status=variable daily=2890444240_PV_15March !EJ4070 Delivered
New Generator.DG_8860201280 bus1=SEP897596.3.0 phases=1 kW=4.3 pf=1.0 kV=0.240 Basefreq=60 Model=7 Vminpu=0.95 Vmaxpu=1.05 status=variable daily=8861588583_PV_15March !EN2801 Delivered
New Generator.DG_2340019222 bus1=SEP89997.3.0 phases=1 kW=4.93 pf=1.0 kV=0.240 Basefreq=60 Model=7 Vminpu=0.95 Vmaxpu=1.05 status=variable daily=2340199302_PV_15March !GE8853 Delivered
New Generator.DG_7050424696 bus1=SEP89998.3.0 phases=1 kW=4.66 pf=1.0 kV=0.240 Basefreq=60 Model=7 Vminpu=0.95 Vmaxpu=1.05 status=variable daily=7051442863_PV_15March !1085565 Delivered
New Generator.DG_9010735242 bus1=SEP858560.3.0 phases=1 kW=2.84 pf=1.0 kV=0.240 Basefreq=60 Model=7 Vminpu=0.95 Vmaxpu=1.05 status=variable daily=9010265202_PV_15March !ER9656 Delivered
New Generator.DG_1310458729 bus1=SEP89999.3.0 phases=1 kW=2.88 pf=1.0 kV=0.240 Basefreq=60 Model=7 Vminpu=0.95 Vmaxpu=1.05 status=variable daily=1310635255_PV_15March !GC9182 Delivered
New Generator.DG_9640372025 bus1=SEP661252.2.0 phases=1 kW=2.06 pf=1.0 kV=0.240 Basefreq=60 Model=7 Vminpu=0.95 Vmaxpu=1.05 status=variable daily=9641351988_PV_15March !GE8944 Delivered
New Generator.DG_5650953464 bus1=SEP661259.2.0 phases=1 kW=2.225 pf=1.0 kV=0.240 Basefreq=60 Model=7 Vminpu=0.95 Vmaxpu=1.05 status=variable daily=5650379379_PV_15March !1142781 Delivered
New Generator.DG_8400676957 bus1=SEP661260.2.0 phases=1 kW=1.81 pf=1.0 kV=0.240 Basefreq=60 Model=7 Vminpu=0.95 Vmaxpu=1.05 status=variable daily=8400865179_PV_15March !GJ6687 Delivered
New Generator.DG_6061113271 bus1=SEP661266.2.0 phases=1 kW=2.03 pf=1.0 kV=0.240 Basefreq=60 Model=7 Vminpu=0.95 Vmaxpu=1.05 status=variable daily=6061168739_PV_15March !FD6245 Delivered
New Generator.DG_8990109957 bus1=SEP661263.2.0 phases=1 kW=2.06 pf=1.0 kV=0.240 Basefreq=60 Model=7 Vminpu=0.95 Vmaxpu=1.05 status=variable daily=8991290006_PV_15March !GJ7091 Delivered