New Transformer.TX705505 XfmrCode=4221452 Wdg=1 Bus=XFR219116.2.0 Tap=1.0 Conn=wye Wdg=2 Bus=XFR219116_EXTNODE.2.0 Tap=1.0 Conn=wye core=shell Basefreq=60
New Transformer.TX667713 XfmrCode=4221452 Wdg=1 Bus=XFR273179.3.0 Tap=1.0 Conn=wye Wdg=2 Bus=XFR273179_EXTNODE.3.0 Tap=1.0 Conn=wye core=shell Basefreq=60
New Transformer.TX667173 XfmrCode=4221453 Wdg=1 Bus=XFR273413.2.0 Tap=1.0 Conn=wye Wdg=2 Bus=XFR273413_EXTNODE.2.0 Tap=1.0 Conn=wye core=shell Basefreq=60
New Transformer.TX667708 XfmrCode=4221453 Wdg=1 Bus=XFR273186.3.0 Tap=1.0 Conn=wye Wdg=2 Bus=XFR273186_EXTNODE.3.0 Tap=1.0 Conn=wye core=shell Basefreq=60
New Transformer.TX734203 XfmrCode=4221453 Wdg=1 Bus=XFR293763.3.0 Tap=1.0 Conn=wye Wdg=2 Bus=XFR293763_EXTNODE.3.0 Tap=1.0 Conn=wye core=shell Basefreq=60
New Transformer.TX780853 XfmrCode=4221453 Wdg=1 Bus=XFR962323.1.0 Tap=1.0 Conn=wye Wdg=2 Bus=XFR962323_EXTNODE.1.0 Tap=1.0 Conn=wye core=shell Basefreq=60
New Transformer.TX678411 XfmrCode=4221453 Wdg=1 Bus=XFR212873.2.0 Tap=1.0 Conn=wye Wdg=2 Bus=XFR212873_EXTNODE.2.0 Tap=1.0 Conn=wye core=shell Basefreq=60
New Transformer.TX705503 XfmrCode=4221452 Wdg=1 Bus=XFR219112.2.0 Tap=1.0 Conn=wye Wdg=2 Bus=XFR219112_EXTNODE.2.0 Tap=1.0 Conn=wye core=shell Basefreq=60
New Transformer.TX658097 XfmrCode=4221452 Wdg=1 Bus=XFR399385.3.0 Tap=1.0 Conn=wye Wdg=2 Bus=XFR399385_EXTNODE.3.0 Tap=1.0 Conn=wye core=shell Basefreq=60
New Transformer.TX780858 XfmrCode=4221453 Wdg=1 Bus=XFR962329.2.0 Tap=1.0 Conn=wye Wdg=2 Bus=XFR962329_EXTNODE.2.0 Tap=1.0 Conn=wye core=shell Basefreq=60
New Transformer.TX793102 XfmrCode=4221453 Wdg=1 Bus=XFR1179989.1.0 Tap=1.0 Conn=wye Wdg=2 Bus=XFR1179989_EXTNODE.1.0 Tap=1.0 Conn=wye core=shell Basefreq=60
New Transformer.TX608970 XfmrCode=4221452 Wdg=1 Bus=XFR171181.3.0 Tap=1.0 Conn=wye Wdg=2 Bus=XFR171181_EXTNODE.3.0 Tap=1.0 Conn=wye core=shell Basefreq=60
New Transformer.TX666435 XfmrCode=4221453 Wdg=1 Bus=XFR273168.2.0 Tap=1.0 Conn=wye Wdg=2 Bus=XFR273168_EXTNODE.2.0 Tap=1.0 Conn=wye core=shell Basefreq=60
New Transformer.TX734204 XfmrCode=4221452 Wdg=1 Bus=XFR293777.3.0 Tap=1.0 Conn=wye Wdg=2 Bus=XFR293777_EXTNODE.3.0 Tap=1.0 Conn=wye core=shell Basefreq=60
New Transformer.TX666428 XfmrCode=4221452 Wdg=1 Bus=XFR273162.1.0 Tap=1.0 Conn=wye Wdg=2 Bus=XFR273162_EXTNODE.1.0 Tap=1.0 Conn=wye core=shell Basefreq=60
New Transformer.TX608935 XfmrCode=4221452 Wdg=1 Bus=XFR173395.1.0 Tap=1.0 Conn=wye Wdg=2 Bus=XFR173395_EXTNODE.1.0 Tap=1.0 Conn=wye core=shell Basefreq=60
New Transformer.TX608957 XfmrCode=4221452 Wdg=1 Bus=XFR173932.2.0 Tap=1.0 Conn=wye Wdg=2 Bus=XFR173932_EXTNODE.2.0 Tap=1.0 Conn=wye core=shell Basefreq=60
New Transformer.TX509944 XfmrCode=4221453 Wdg=1 Bus=XFR212108.3.0 Tap=1.0 Conn=wye Wdg=2 Bus=XFR212108_EXTNODE.3.0 Tap=1.0 Conn=wye core=shell Basefreq=60
New Transformer.TX780880 XfmrCode=4221453 Wdg=1 Bus=XFR962350.3.0 Tap=1.0 Conn=wye Wdg=2 Bus=XFR962350_EXTNODE.3.0 Tap=1.0 Conn=wye core=shell Basefreq=60
New Transformer.TX705504 XfmrCode=4221453 Wdg=1 Bus=XFR219114.2.0 Tap=1.0 Conn=wye Wdg=2 Bus=XFR219114_EXTNODE.2.0 Tap=1.0 Conn=wye core=shell Basefreq=60
New Transformer.TX667178 XfmrCode=4221453 Wdg=1 Bus=XFR273404.3.0 Tap=1.0 Conn=wye Wdg=2 Bus=XFR273404_EXTNODE.3.0 Tap=1.0 Conn=wye core=shell Basefreq=60
New Transformer.TX658086 XfmrCode=4221453 Wdg=1 Bus=XFR399060.1.0 Tap=1.0 Conn=wye Wdg=2 Bus=XFR399060_EXTNODE.1.0 Tap=1.0 Conn=wye core=shell Basefreq=60
New Transformer.TX667182 XfmrCode=4221453 Wdg=1 Bus=XFR273395.3.0 Tap=1.0 Conn=wye Wdg=2 Bus=XFR273395_EXTNODE.3.0 Tap=1.0 Conn=wye core=shell Basefreq=60
New Transformer.TX608927 XfmrCode=4221453 Wdg=1 Bus=XFR243361.2.0 Tap=1.0 Conn=wye Wdg=2 Bus=XFR243361_EXTNODE.2.0 Tap=1.0 Conn=wye core=shell Basefreq=60
New Transformer.TX608945 XfmrCode=4221452 Wdg=1 Bus=XFR173931.1.0 Tap=1.0 Conn=wye Wdg=2 Bus=XFR173931_EXTNODE.1.0 Tap=1.0 Conn=wye core=shell Basefreq=60
New Transformer.TX666436 XfmrCode=4221453 Wdg=1 Bus=XFR273169.2.0 Tap=1.0 Conn=wye Wdg=2 Bus=XFR273169_EXTNODE.2.0 Tap=1.0 Conn=wye core=shell Basefreq=60
New Transformer.TX667160 XfmrCode=4221452 Wdg=1 Bus=XFR273390.1.0 Tap=1.0 Conn=wye Wdg=2 Bus=XFR273390_EXTNODE.1.0 Tap=1.0 Conn=wye core=shell Basefreq=60
New Transformer.TX667715 XfmrCode=4221452 Wdg=1 Bus=XFR273181.3.0 Tap=1.0 Conn=wye Wdg=2 Bus=XFR273181_EXTNODE.3.0 Tap=1.0 Conn=wye core=shell Basefreq=60
New Transformer.TX512370 XfmrCode=4221453 Wdg=1 Bus=XFR163524.2.0 Tap=1.0 Conn=wye Wdg=2 Bus=XFR163524_EXTNODE.2.0 Tap=1.0 Conn=wye core=shell Basefreq=60
New Transformer.TX780861 XfmrCode=4221452 Wdg=1 Bus=XFR962336.2.0 Tap=1.0 Conn=wye Wdg=2 Bus=XFR962336_EXTNODE.2.0 Tap=1.0 Conn=wye core=shell Basefreq=60
New Transformer.TX707284 XfmrCode=4221452 Wdg=1 Bus=XFR276530.1.0 Tap=1.0 Conn=wye Wdg=2 Bus=XFR276530_EXTNODE.1.0 Tap=1.0 Conn=wye core=shell Basefreq=60
New Transformer.TX509800 XfmrCode=4222213 Wdg=1 Bus=XFR250584.1.2.3 Tap=1.0 Conn=wye Wdg=2 Bus=XFR250584_EXTNODE.1.2.3 Tap=1.0 Conn=wye core=shell Basefreq=60
New Transformer.TX608951 XfmrCode=4221453 Wdg=1 Bus=XFR173384.2.0 Tap=1.0 Conn=wye Wdg=2 Bus=XFR173384_EXTNODE.2.0 Tap=1.0 Conn=wye core=shell Basefreq=60
New Transformer.TX667164 XfmrCode=4221452 Wdg=1 Bus=XFR273394.1.0 Tap=1.0 Conn=wye Wdg=2 Bus=XFR273394_EXTNODE.1.0 Tap=1.0 Conn=wye core=shell Basefreq=60
New Transformer.TX639587 XfmrCode=4221453 Wdg=1 Bus=XFR273154.1.0 Tap=1.0 Conn=wye Wdg=2 Bus=XFR273154_EXTNODE.1.0 Tap=1.0 Conn=wye core=shell Basefreq=60
New Transformer.TX667698 XfmrCode=4221452 Wdg=1 Bus=XFR273387.2.0 Tap=1.0 Conn=wye Wdg=2 Bus=XFR273387_EXTNODE.2.0 Tap=1.0 Conn=wye core=shell Basefreq=60
New Transformer.TX608942 XfmrCode=4221453 Wdg=1 Bus=XFR171174.1.0 Tap=1.0 Conn=wye Wdg=2 Bus=XFR171174_EXTNODE.1.0 Tap=1.0 Conn=wye core=shell Basefreq=60
New Transformer.TX608936 XfmrCode=4221452 Wdg=1 Bus=XFR208658.1.0 Tap=1.0 Conn=wye Wdg=2 Bus=XFR208658_EXTNODE.1.0 Tap=1.0 Conn=wye core=shell Basefreq=60
New Transformer.TX780854 XfmrCode=4221453 Wdg=1 Bus=XFR962324.1.0 Tap=1.0 Conn=wye Wdg=2 Bus=XFR962324_EXTNODE.1.0 Tap=1.0 Conn=wye core=shell Basefreq=60
New Transformer.TX780857 XfmrCode=4221453 Wdg=1 Bus=XFR962349.1.0 Tap=1.0 Conn=wye Wdg=2 Bus=XFR962349_EXTNODE.1.0 Tap=1.0 Conn=wye core=shell Basefreq=60
New Transformer.TX634184 XfmrCode=4221453 Wdg=1 Bus=XFR273144.3.0 Tap=1.0 Conn=wye Wdg=2 Bus=XFR273144_EXTNODE.3.0 Tap=1.0 Conn=wye core=shell Basefreq=60
New Transformer.TX512373 XfmrCode=4221453 Wdg=1 Bus=XFR163523.2.0 Tap=1.0 Conn=wye Wdg=2 Bus=XFR163523_EXTNODE.2.0 Tap=1.0 Conn=wye core=shell Basefreq=60
New Transformer.TX608956 XfmrCode=4221452 Wdg=1 Bus=XFR173933.2.0 Tap=1.0 Conn=wye Wdg=2 Bus=XFR173933_EXTNODE.2.0 Tap=1.0 Conn=wye core=shell Basefreq=60
New Transformer.TX780852 XfmrCode=4221453 Wdg=1 Bus=XFR962322.1.0 Tap=1.0 Conn=wye Wdg=2 Bus=XFR962322_EXTNODE.1.0 Tap=1.0 Conn=wye core=shell Basefreq=60
New Transformer.TX608922 XfmrCode=4221453 Wdg=1 Bus=XFR243347.2.0 Tap=1.0 Conn=wye Wdg=2 Bus=XFR243347_EXTNODE.2.0 Tap=1.0 Conn=wye core=shell Basefreq=60
New Transformer.TX705502 XfmrCode=4221452 Wdg=1 Bus=XFR219113.2.0 Tap=1.0 Conn=wye Wdg=2 Bus=XFR219113_EXTNODE.2.0 Tap=1.0 Conn=wye core=shell Basefreq=60
New Transformer.TX634170 XfmrCode=4221453 Wdg=1 Bus=XFR273122.1.0 Tap=1.0 Conn=wye Wdg=2 Bus=XFR273122_EXTNODE.1.0 Tap=1.0 Conn=wye core=shell Basefreq=60
New Transformer.TX634180 XfmrCode=4221453 Wdg=1 Bus=XFR273131.2.0 Tap=1.0 Conn=wye Wdg=2 Bus=XFR273131_EXTNODE.2.0 Tap=1.0 Conn=wye core=shell Basefreq=60
New Transformer.TX666434 XfmrCode=4221453 Wdg=1 Bus=XFR273167.2.0 Tap=1.0 Conn=wye Wdg=2 Bus=XFR273167_EXTNODE.2.0 Tap=1.0 Conn=wye core=shell Basefreq=60
New Transformer.TX780879 XfmrCode=4221452 Wdg=1 Bus=XFR962343.3.0 Tap=1.0 Conn=wye Wdg=2 Bus=XFR962343_EXTNODE.3.0 Tap=1.0 Conn=wye core=shell Basefreq=60
New Transformer.TX705513 XfmrCode=4221452 Wdg=1 Bus=XFR257613.3.0 Tap=1.0 Conn=wye Wdg=2 Bus=XFR257613_EXTNODE.3.0 Tap=1.0 Conn=wye core=shell Basefreq=60
New Transformer.TX634168 XfmrCode=4221453 Wdg=1 Bus=XFR273128.1.0 Tap=1.0 Conn=wye Wdg=2 Bus=XFR273128_EXTNODE.1.0 Tap=1.0 Conn=wye core=shell Basefreq=60
New Transformer.TX639585 XfmrCode=4221453 Wdg=1 Bus=XFR273152.2.0 Tap=1.0 Conn=wye Wdg=2 Bus=XFR273152_EXTNODE.2.0 Tap=1.0 Conn=wye core=shell Basefreq=60
New Transformer.TX734201 XfmrCode=4221453 Wdg=1 Bus=XFR293761.3.0 Tap=1.0 Conn=wye Wdg=2 Bus=XFR293761_EXTNODE.3.0 Tap=1.0 Conn=wye core=shell Basefreq=60
New Transformer.TX705487 XfmrCode=4221452 Wdg=1 Bus=XFR183816.2.0 Tap=1.0 Conn=wye Wdg=2 Bus=XFR183816_EXTNODE.2.0 Tap=1.0 Conn=wye core=shell Basefreq=60
New Transformer.TX667701 XfmrCode=4221453 Wdg=1 Bus=XFR273178.3.0 Tap=1.0 Conn=wye Wdg=2 Bus=XFR273178_EXTNODE.3.0 Tap=1.0 Conn=wye core=shell Basefreq=60
New Transformer.TX678415 XfmrCode=4221453 Wdg=1 Bus=XFR273420.1.0 Tap=1.0 Conn=wye Wdg=2 Bus=XFR273420_EXTNODE.1.0 Tap=1.0 Conn=wye core=shell Basefreq=60
New Transformer.TX705506 XfmrCode=4221452 Wdg=1 Bus=XFR219120.2.0 Tap=1.0 Conn=wye Wdg=2 Bus=XFR219120_EXTNODE.2.0 Tap=1.0 Conn=wye core=shell Basefreq=60
New Transformer.TX658087 XfmrCode=4221453 Wdg=1 Bus=XFR399061.1.0 Tap=1.0 Conn=wye Wdg=2 Bus=XFR399061_EXTNODE.1.0 Tap=1.0 Conn=wye core=shell Basefreq=60
New Transformer.TX684295 XfmrCode=4221453 Wdg=1 Bus=XFR212882.1.0 Tap=1.0 Conn=wye Wdg=2 Bus=XFR212882_EXTNODE.1.0 Tap=1.0 Conn=wye core=shell Basefreq=60
New Transformer.TX658094 XfmrCode=4221452 Wdg=1 Bus=XFR399382.2.0 Tap=1.0 Conn=wye Wdg=2 Bus=XFR399382_EXTNODE.2.0 Tap=1.0 Conn=wye core=shell Basefreq=60
New Transformer.TX667720 XfmrCode=4221452 Wdg=1 Bus=XFR273189.2.0 Tap=1.0 Conn=wye Wdg=2 Bus=XFR273189_EXTNODE.2.0 Tap=1.0 Conn=wye core=shell Basefreq=60
New Transformer.TX457046 XfmrCode=4221451 Wdg=1 Bus=XFR250581.1.0 Tap=1.0 Conn=wye Wdg=2 Bus=XFR250581_EXTNODE.1.0 Tap=1.0 Conn=wye core=shell Basefreq=60
New Transformer.TX634174 XfmrCode=4221453 Wdg=1 Bus=XFR273126.1.0 Tap=1.0 Conn=wye Wdg=2 Bus=XFR273126_EXTNODE.1.0 Tap=1.0 Conn=wye core=shell Basefreq=60
New Transformer.TX666437 XfmrCode=4221453 Wdg=1 Bus=XFR273170.2.0 Tap=1.0 Conn=wye Wdg=2 Bus=XFR273170_EXTNODE.2.0 Tap=1.0 Conn=wye core=shell Basefreq=60
New Transformer.TX634164 XfmrCode=4221452 Wdg=1 Bus=XFR273139.3.0 Tap=1.0 Conn=wye Wdg=2 Bus=XFR273139_EXTNODE.3.0 Tap=1.0 Conn=wye core=shell Basefreq=60
New Transformer.TX705508 XfmrCode=4221452 Wdg=1 Bus=XFR219109.3.0 Tap=1.0 Conn=wye Wdg=2 Bus=XFR219109_EXTNODE.3.0 Tap=1.0 Conn=wye core=shell Basefreq=60
New Transformer.TX512367 XfmrCode=4221453 Wdg=1 Bus=XFR163527.2.0 Tap=1.0 Conn=wye Wdg=2 Bus=XFR163527_EXTNODE.2.0 Tap=1.0 Conn=wye core=shell Basefreq=60
New Transformer.TX667705 XfmrCode=4221452 Wdg=1 Bus=XFR273174.3.0 Tap=1.0 Conn=wye Wdg=2 Bus=XFR273174_EXTNODE.3.0 Tap=1.0 Conn=wye core=shell Basefreq=60
New Transformer.TX780859 XfmrCode=4221452 Wdg=1 Bus=XFR962335.2.0 Tap=1.0 Conn=wye Wdg=2 Bus=XFR962335_EXTNODE.2.0 Tap=1.0 Conn=wye core=shell Basefreq=60
New Transformer.TX667719 XfmrCode=4221453 Wdg=1 Bus=XFR273190.2.0 Tap=1.0 Conn=wye Wdg=2 Bus=XFR273190_EXTNODE.2.0 Tap=1.0 Conn=wye core=shell Basefreq=60
New Transformer.TX608932 XfmrCode=4221453 Wdg=1 Bus=XFR177395.1.0 Tap=1.0 Conn=wye Wdg=2 Bus=XFR177395_EXTNODE.1.0 Tap=1.0 Conn=wye core=shell Basefreq=60
New Transformer.TX509798 XfmrCode=4221453 Wdg=1 Bus=XFR151150.3.0 Tap=1.0 Conn=wye Wdg=2 Bus=XFR151150_EXTNODE.3.0 Tap=1.0 Conn=wye core=shell Basefreq=60
New Transformer.TX512361 XfmrCode=4221453 Wdg=1 Bus=XFR250585.1.0 Tap=1.0 Conn=wye Wdg=2 Bus=XFR250585_EXTNODE.1.0 Tap=1.0 Conn=wye core=shell Basefreq=60
New Transformer.TX667699 XfmrCode=4221452 Wdg=1 Bus=XFR154978.3.0 Tap=1.0 Conn=wye Wdg=2 Bus=XFR154978_EXTNODE.3.0 Tap=1.0 Conn=wye core=shell Basefreq=60
New Transformer.TX793112 XfmrCode=4221453 Wdg=1 Bus=XFR1179980.2.0 Tap=1.0 Conn=wye Wdg=2 Bus=XFR1179980_EXTNODE.2.0 Tap=1.0 Conn=wye core=shell Basefreq=60
New Transformer.TX608943 XfmrCode=4221453 Wdg=1 Bus=XFR171173.1.0 Tap=1.0 Conn=wye Wdg=2 Bus=XFR171173_EXTNODE.1.0 Tap=1.0 Conn=wye core=shell Basefreq=60
New Transformer.TX659774 XfmrCode=4221451 Wdg=1 Bus=XFR273173.1.0 Tap=1.0 Conn=wye Wdg=2 Bus=XFR273173_EXTNODE.1.0 Tap=1.0 Conn=wye core=shell Basefreq=60
New Transformer.TX684207 XfmrCode=4221555 Wdg=1 Bus=XFR154986.1.0 Tap=1.0 Conn=wye Wdg=2 Bus=XFR154986_EXTNODE.1.0 Tap=1.0 Conn=wye core=shell Basefreq=60
New Transformer.TX608968 XfmrCode=4221452 Wdg=1 Bus=XFR213255.3.0 Tap=1.0 Conn=wye Wdg=2 Bus=XFR213255_EXTNODE.3.0 Tap=1.0 Conn=wye core=shell Basefreq=60
New Transformer.TX608964 XfmrCode=4221452 Wdg=1 Bus=XFR174520.3.0 Tap=1.0 Conn=wye Wdg=2 Bus=XFR174520_EXTNODE.3.0 Tap=1.0 Conn=wye core=shell Basefreq=60
New Transformer.TX608937 XfmrCode=4221452 Wdg=1 Bus=XFR177414.1.0 Tap=1.0 Conn=wye Wdg=2 Bus=XFR177414_EXTNODE.1.0 Tap=1.0 Conn=wye core=shell Basefreq=60
New Transformer.TX509946 XfmrCode=4221453 Wdg=1 Bus=XFR212110.2.0 Tap=1.0 Conn=wye Wdg=2 Bus=XFR212110_EXTNODE.2.0 Tap=1.0 Conn=wye core=shell Basefreq=60
New Transformer.TX512363 XfmrCode=4221453 Wdg=1 Bus=XFR163531.1.0 Tap=1.0 Conn=wye Wdg=2 Bus=XFR163531_EXTNODE.1.0 Tap=1.0 Conn=wye core=shell Basefreq=60
New Transformer.TX705484 XfmrCode=4221453 Wdg=1 Bus=XFR177082.1.0 Tap=1.0 Conn=wye Wdg=2 Bus=XFR177082_EXTNODE.1.0 Tap=1.0 Conn=wye core=shell Basefreq=60
New Transformer.TX667183 XfmrCode=4221453 Wdg=1 Bus=XFR273396.3.0 Tap=1.0 Conn=wye Wdg=2 Bus=XFR273396_EXTNODE.3.0 Tap=1.0 Conn=wye core=shell Basefreq=60
New Transformer.TX780869 XfmrCode=4221453 Wdg=1 Bus=XFR962333.3.0 Tap=1.0 Conn=wye Wdg=2 Bus=XFR962333_EXTNODE.3.0 Tap=1.0 Conn=wye core=shell Basefreq=60
New Transformer.TX658096 XfmrCode=4221453 Wdg=1 Bus=XFR399384.2.0 Tap=1.0 Conn=wye Wdg=2 Bus=XFR399384_EXTNODE.2.0 Tap=1.0 Conn=wye core=shell Basefreq=60
New Transformer.TX780867 XfmrCode=4221453 Wdg=1 Bus=XFR962332.3.0 Tap=1.0 Conn=wye Wdg=2 Bus=XFR962332_EXTNODE.3.0 Tap=1.0 Conn=wye core=shell Basefreq=60
New Transformer.TX639591 XfmrCode=4221452 Wdg=1 Bus=XFR273158.1.0 Tap=1.0 Conn=wye Wdg=2 Bus=XFR273158_EXTNODE.1.0 Tap=1.0 Conn=wye core=shell Basefreq=60
New Transformer.TX684204 XfmrCode=4221453 Wdg=1 Bus=XFR212884.1.0 Tap=1.0 Conn=wye Wdg=2 Bus=XFR212884_EXTNODE.1.0 Tap=1.0 Conn=wye core=shell Basefreq=60
New Transformer.TX608973 XfmrCode=4221452 Wdg=1 Bus=XFR177929.3.0 Tap=1.0 Conn=wye Wdg=2 Bus=XFR177929_EXTNODE.3.0 Tap=1.0 Conn=wye core=shell Basefreq=60
New Transformer.TX780864 XfmrCode=4221452 Wdg=1 Bus=XFR962337.2.0 Tap=1.0 Conn=wye Wdg=2 Bus=XFR962337_EXTNODE.2.0 Tap=1.0 Conn=wye core=shell Basefreq=60
New Transformer.TX511583 XfmrCode=4221453 Wdg=1 Bus=XFR164460.1.0 Tap=1.0 Conn=wye Wdg=2 Bus=XFR164460_EXTNODE.1.0 Tap=1.0 Conn=wye core=shell Basefreq=60
New Transformer.TX511585 XfmrCode=4221453 Wdg=1 Bus=XFR164723.1.0 Tap=1.0 Conn=wye Wdg=2 Bus=XFR164723_EXTNODE.1.0 Tap=1.0 Conn=wye core=shell Basefreq=60
New Transformer.TX526578 XfmrCode=4221452 Wdg=1 Bus=XFR158249.1.0 Tap=1.0 Conn=wye Wdg=2 Bus=XFR158249_EXTNODE.1.0 Tap=1.0 Conn=wye core=shell Basefreq=60
New Transformer.TX608962 XfmrCode=4221452 Wdg=1 Bus=XFR174518.3.0 Tap=1.0 Conn=wye Wdg=2 Bus=XFR174518_EXTNODE.3.0 Tap=1.0 Conn=wye core=shell Basefreq=60
New Transformer.TX780877 XfmrCode=4221452 Wdg=1 Bus=XFR962341.3.0 Tap=1.0 Conn=wye Wdg=2 Bus=XFR962341_EXTNODE.3.0 Tap=1.0 Conn=wye core=shell Basefreq=60
New Transformer.TX608963 XfmrCode=4221452 Wdg=1 Bus=XFR174519.3.0 Tap=1.0 Conn=wye Wdg=2 Bus=XFR174519_EXTNODE.3.0 Tap=1.0 Conn=wye core=shell Basefreq=60
New Transformer.TX639582 XfmrCode=4221452 Wdg=1 Bus=XFR273149.2.0 Tap=1.0 Conn=wye Wdg=2 Bus=XFR273149_EXTNODE.2.0 Tap=1.0 Conn=wye core=shell Basefreq=60
New Transformer.TX705512 XfmrCode=4221452 Wdg=1 Bus=XFR219088.3.0 Tap=1.0 Conn=wye Wdg=2 Bus=XFR219088_EXTNODE.3.0 Tap=1.0 Conn=wye core=shell Basefreq=60
New Transformer.TX509948 XfmrCode=4221453 Wdg=1 Bus=XFR212112.2.0 Tap=1.0 Conn=wye Wdg=2 Bus=XFR212112_EXTNODE.2.0 Tap=1.0 Conn=wye core=shell Basefreq=60
New Transformer.TX705481 XfmrCode=4221453 Wdg=1 Bus=XFR177078.1.0 Tap=1.0 Conn=wye Wdg=2 Bus=XFR177078_EXTNODE.1.0 Tap=1.0 Conn=wye core=shell Basefreq=60
New Transformer.TX634173 XfmrCode=4221453 Wdg=1 Bus=XFR273125.1.0 Tap=1.0 Conn=wye Wdg=2 Bus=XFR273125_EXTNODE.1.0 Tap=1.0 Conn=wye core=shell Basefreq=60
New Transformer.TX709957 XfmrCode=4221452 Wdg=1 Bus=XFR335431.2.0 Tap=1.0 Conn=wye Wdg=2 Bus=XFR335431_EXTNODE.2.0 Tap=1.0 Conn=wye core=shell Basefreq=60
New Transformer.TX667694 XfmrCode=4221453 Wdg=1 Bus=XFR273383.2.0 Tap=1.0 Conn=wye Wdg=2 Bus=XFR273383_EXTNODE.2.0 Tap=1.0 Conn=wye core=shell Basefreq=60
New Transformer.TX667704 XfmrCode=4221452 Wdg=1 Bus=XFR273175.3.0 Tap=1.0 Conn=wye Wdg=2 Bus=XFR273175_EXTNODE.3.0 Tap=1.0 Conn=wye core=shell Basefreq=60
New Transformer.TX608971 XfmrCode=4221452 Wdg=1 Bus=XFR177928.3.0 Tap=1.0 Conn=wye Wdg=2 Bus=XFR177928_EXTNODE.3.0 Tap=1.0 Conn=wye core=shell Basefreq=60
New Transformer.TX667177 XfmrCode=4221452 Wdg=1 Bus=XFR273403.3.0 Tap=1.0 Conn=wye Wdg=2 Bus=XFR273403_EXTNODE.3.0 Tap=1.0 Conn=wye core=shell Basefreq=60
New Transformer.TX667184 XfmrCode=4221453 Wdg=1 Bus=XFR273397.3.0 Tap=1.0 Conn=wye Wdg=2 Bus=XFR273397_EXTNODE.3.0 Tap=1.0 Conn=wye core=shell Basefreq=60
New Transformer.TX793118 XfmrCode=4221453 Wdg=1 Bus=XFR1179972.3.0 Tap=1.0 Conn=wye Wdg=2 Bus=XFR1179972_EXTNODE.3.0 Tap=1.0 Conn=wye core=shell Basefreq=60
New Transformer.TX734202 XfmrCode=4221453 Wdg=1 Bus=XFR293762.3.0 Tap=1.0 Conn=wye Wdg=2 Bus=XFR293762_EXTNODE.3.0 Tap=1.0 Conn=wye core=shell Basefreq=60
New Transformer.TX684300 XfmrCode=4221453 Wdg=1 Bus=XFR212883.1.0 Tap=1.0 Conn=wye Wdg=2 Bus=XFR212883_EXTNODE.1.0 Tap=1.0 Conn=wye core=shell Basefreq=60
New Transformer.TX511588 XfmrCode=4221453 Wdg=1 Bus=XFR164726.2.0 Tap=1.0 Conn=wye Wdg=2 Bus=XFR164726_EXTNODE.2.0 Tap=1.0 Conn=wye core=shell Basefreq=60
New Transformer.TX639592 XfmrCode=4221453 Wdg=1 Bus=XFR273159.1.0 Tap=1.0 Conn=wye Wdg=2 Bus=XFR273159_EXTNODE.1.0 Tap=1.0 Conn=wye core=shell Basefreq=60
New Transformer.TX639590 XfmrCode=4221452 Wdg=1 Bus=XFR273157.1.0 Tap=1.0 Conn=wye Wdg=2 Bus=XFR273157_EXTNODE.1.0 Tap=1.0 Conn=wye core=shell Basefreq=60
New Transformer.TX659771 XfmrCode=4221451 Wdg=1 Bus=XFR273172.3.0 Tap=1.0 Conn=wye Wdg=2 Bus=XFR273172_EXTNODE.3.0 Tap=1.0 Conn=wye core=shell Basefreq=60
New Transformer.TX658091 XfmrCode=4221452 Wdg=1 Bus=XFR399379.2.0 Tap=1.0 Conn=wye Wdg=2 Bus=XFR399379_EXTNODE.2.0 Tap=1.0 Conn=wye core=shell Basefreq=60
New Transformer.TX793109 XfmrCode=4221452 Wdg=1 Bus=XFR1179984.2.0 Tap=1.0 Conn=wye Wdg=2 Bus=XFR1179984_EXTNODE.2.0 Tap=1.0 Conn=wye core=shell Basefreq=60
New Transformer.TX512359 XfmrCode=4221452 Wdg=1 Bus=XFR250587.1.0 Tap=1.0 Conn=wye Wdg=2 Bus=XFR250587_EXTNODE.1.0 Tap=1.0 Conn=wye core=shell Basefreq=60
New Transformer.TX509795 XfmrCode=4221453 Wdg=1 Bus=XFR151145.3.0 Tap=1.0 Conn=wye Wdg=2 Bus=XFR151145_EXTNODE.3.0 Tap=1.0 Conn=wye core=shell Basefreq=60
New Transformer.TX511584 XfmrCode=4221452 Wdg=1 Bus=XFR164722.1.0 Tap=1.0 Conn=wye Wdg=2 Bus=XFR164722_EXTNODE.1.0 Tap=1.0 Conn=wye core=shell Basefreq=60
New Transformer.TX707281 XfmrCode=4221453 Wdg=1 Bus=XFR276533.1.0 Tap=1.0 Conn=wye Wdg=2 Bus=XFR276533_EXTNODE.1.0 Tap=1.0 Conn=wye core=shell Basefreq=60
New Transformer.TX793111 XfmrCode=4221453 Wdg=1 Bus=XFR1179979.2.0 Tap=1.0 Conn=wye Wdg=2 Bus=XFR1179979_EXTNODE.2.0 Tap=1.0 Conn=wye core=shell Basefreq=60
New Transformer.TX229892 XfmrCode=4221452 Wdg=1 Bus=XFR211058.2.0 Tap=1.0 Conn=wye Wdg=2 Bus=XFR211058_EXTNODE.2.0 Tap=1.0 Conn=wye core=shell Basefreq=60
New Transformer.TX780865 XfmrCode=4221453 Wdg=1 Bus=XFR962348.2.0 Tap=1.0 Conn=wye Wdg=2 Bus=XFR962348_EXTNODE.2.0 Tap=1.0 Conn=wye core=shell Basefreq=60
New Transformer.TX667175 XfmrCode=4221453 Wdg=1 Bus=XFR273401.3.0 Tap=1.0 Conn=wye Wdg=2 Bus=XFR273401_EXTNODE.3.0 Tap=1.0 Conn=wye core=shell Basefreq=60
New Transformer.TX667158 XfmrCode=4221452 Wdg=1 Bus=XFR273388.1.0 Tap=1.0 Conn=wye Wdg=2 Bus=XFR273388_EXTNODE.1.0 Tap=1.0 Conn=wye core=shell Basefreq=60
New Transformer.TX667693 XfmrCode=4221453 Wdg=1 Bus=XFR154983.2.0 Tap=1.0 Conn=wye Wdg=2 Bus=XFR154983_EXTNODE.2.0 Tap=1.0 Conn=wye core=shell Basefreq=60
New Transformer.TX666431 XfmrCode=4221453 Wdg=1 Bus=XFR273165.1.0 Tap=1.0 Conn=wye Wdg=2 Bus=XFR273165_EXTNODE.1.0 Tap=1.0 Conn=wye core=shell Basefreq=60
New Transformer.TX684281 XfmrCode=4221453 Wdg=1 Bus=XFR154987.1.0 Tap=1.0 Conn=wye Wdg=2 Bus=XFR154987_EXTNODE.1.0 Tap=1.0 Conn=wye core=shell Basefreq=60
New Transformer.TX667700 XfmrCode=4221452 Wdg=1 Bus=XFR273382.3.0 Tap=1.0 Conn=wye Wdg=2 Bus=XFR273382_EXTNODE.3.0 Tap=1.0 Conn=wye core=shell Basefreq=60
New Transformer.TX780875 XfmrCode=4221453 Wdg=1 Bus=XFR962330.3.0 Tap=1.0 Conn=wye Wdg=2 Bus=XFR962330_EXTNODE.3.0 Tap=1.0 Conn=wye core=shell Basefreq=60
New Transformer.TX607200 XfmrCode=4221452 Wdg=1 Bus=XFR221886.3.0 Tap=1.0 Conn=wye Wdg=2 Bus=XFR221886_EXTNODE.3.0 Tap=1.0 Conn=wye core=shell Basefreq=60
New Transformer.TX705482 XfmrCode=4221452 Wdg=1 Bus=XFR177079.1.0 Tap=1.0 Conn=wye Wdg=2 Bus=XFR177079_EXTNODE.1.0 Tap=1.0 Conn=wye core=shell Basefreq=60
New Transformer.TX526577 XfmrCode=4221452 Wdg=1 Bus=XFR162066.1.0 Tap=1.0 Conn=wye Wdg=2 Bus=XFR162066_EXTNODE.1.0 Tap=1.0 Conn=wye core=shell Basefreq=60
New Transformer.TX705483 XfmrCode=4221452 Wdg=1 Bus=XFR177081.1.0 Tap=1.0 Conn=wye Wdg=2 Bus=XFR177081_EXTNODE.1.0 Tap=1.0 Conn=wye core=shell Basefreq=60
New Transformer.TX634162 XfmrCode=4221453 Wdg=1 Bus=XFR273141.3.0 Tap=1.0 Conn=wye Wdg=2 Bus=XFR273141_EXTNODE.3.0 Tap=1.0 Conn=wye core=shell Basefreq=60
New Transformer.TX509797 XfmrCode=4221453 Wdg=1 Bus=XFR151148.3.0 Tap=1.0 Conn=wye Wdg=2 Bus=XFR151148_EXTNODE.3.0 Tap=1.0 Conn=wye core=shell Basefreq=60
New Transformer.TX659781 XfmrCode=4221451 Wdg=1 Bus=XFR211663.2.0 Tap=1.0 Conn=wye Wdg=2 Bus=XFR211663_EXTNODE.2.0 Tap=1.0 Conn=wye core=shell Basefreq=60
New Transformer.TX608976 XfmrCode=4221452 Wdg=1 Bus=XFR76641.3.0 Tap=1.0 Conn=wye Wdg=2 Bus=XFR76641_EXTNODE.3.0 Tap=1.0 Conn=wye core=shell Basefreq=60
New Transformer.TX658093 XfmrCode=4221452 Wdg=1 Bus=XFR399381.2.0 Tap=1.0 Conn=wye Wdg=2 Bus=XFR399381_EXTNODE.2.0 Tap=1.0 Conn=wye core=shell Basefreq=60
New Transformer.TX634177 XfmrCode=4221453 Wdg=1 Bus=XFR273134.2.0 Tap=1.0 Conn=wye Wdg=2 Bus=XFR273134_EXTNODE.2.0 Tap=1.0 Conn=wye core=shell Basefreq=60
New Transformer.TX511589 XfmrCode=4221453 Wdg=1 Bus=XFR164727.2.0 Tap=1.0 Conn=wye Wdg=2 Bus=XFR164727_EXTNODE.2.0 Tap=1.0 Conn=wye core=shell Basefreq=60
New Transformer.TX667697 XfmrCode=4221453 Wdg=1 Bus=XFR273386.2.0 Tap=1.0 Conn=wye Wdg=2 Bus=XFR273386_EXTNODE.2.0 Tap=1.0 Conn=wye core=shell Basefreq=60
New Transformer.TX667716 XfmrCode=4221452 Wdg=1 Bus=XFR154976.2.0 Tap=1.0 Conn=wye Wdg=2 Bus=XFR154976_EXTNODE.2.0 Tap=1.0 Conn=wye core=shell Basefreq=60
New Transformer.TX634182 XfmrCode=4221453 Wdg=1 Bus=XFR273142.3.0 Tap=1.0 Conn=wye Wdg=2 Bus=XFR273142_EXTNODE.3.0 Tap=1.0 Conn=wye core=shell Basefreq=60
New Transformer.TX634183 XfmrCode=4221403 Wdg=1 Bus=XFR273143.3.0 Tap=1.0 Conn=wye Wdg=2 Bus=XFR273143_EXTNODE.3.0 Tap=1.0 Conn=wye core=shell Basefreq=60
New Transformer.TX667159 XfmrCode=4221453 Wdg=1 Bus=XFR273389.1.0 Tap=1.0 Conn=wye Wdg=2 Bus=XFR273389_EXTNODE.1.0 Tap=1.0 Conn=wye core=shell Basefreq=60
New Transformer.TX457044 XfmrCode=4221451 Wdg=1 Bus=XFR250582.3.0 Tap=1.0 Conn=wye Wdg=2 Bus=XFR250582_EXTNODE.3.0 Tap=1.0 Conn=wye core=shell Basefreq=60
New Transformer.TX780874 XfmrCode=4221452 Wdg=1 Bus=XFR962338.3.0 Tap=1.0 Conn=wye Wdg=2 Bus=XFR962338_EXTNODE.3.0 Tap=1.0 Conn=wye core=shell Basefreq=60
New Transformer.TX658100 XfmrCode=4221453 Wdg=1 Bus=XFR399388.3.0 Tap=1.0 Conn=wye Wdg=2 Bus=XFR399388_EXTNODE.3.0 Tap=1.0 Conn=wye core=shell Basefreq=60
New Transformer.TX526573 XfmrCode=4221453 Wdg=1 Bus=XFR162063.1.0 Tap=1.0 Conn=wye Wdg=2 Bus=XFR162063_EXTNODE.1.0 Tap=1.0 Conn=wye core=shell Basefreq=60
New Transformer.TX667718 XfmrCode=4221453 Wdg=1 Bus=XFR273191.2.0 Tap=1.0 Conn=wye Wdg=2 Bus=XFR273191_EXTNODE.2.0 Tap=1.0 Conn=wye core=shell Basefreq=60
New Transformer.TX608960 XfmrCode=4221452 Wdg=1 Bus=XFR174516.3.0 Tap=1.0 Conn=wye Wdg=2 Bus=XFR174516_EXTNODE.3.0 Tap=1.0 Conn=wye core=shell Basefreq=60
New Transformer.TX780878 XfmrCode=4221452 Wdg=1 Bus=XFR962342.3.0 Tap=1.0 Conn=wye Wdg=2 Bus=XFR962342_EXTNODE.3.0 Tap=1.0 Conn=wye core=shell Basefreq=60
New Transformer.TX634161 XfmrCode=4221403 Wdg=1 Bus=XFR273137.3.0 Tap=1.0 Conn=wye Wdg=2 Bus=XFR273137_EXTNODE.3.0 Tap=1.0 Conn=wye core=shell Basefreq=60
New Transformer.TX634175 XfmrCode=4221453 Wdg=1 Bus=XFR273136.2.0 Tap=1.0 Conn=wye Wdg=2 Bus=XFR273136_EXTNODE.2.0 Tap=1.0 Conn=wye core=shell Basefreq=60
New Transformer.TX684283 XfmrCode=4221453 Wdg=1 Bus=XFR154993.1.0 Tap=1.0 Conn=wye Wdg=2 Bus=XFR154993_EXTNODE.1.0 Tap=1.0 Conn=wye core=shell Basefreq=60
New Transformer.TX577399 XfmrCode=4221452 Wdg=1 Bus=XFR173396.1.0 Tap=1.0 Conn=wye Wdg=2 Bus=XFR173396_EXTNODE.1.0 Tap=1.0 Conn=wye core=shell Basefreq=60
New Transformer.TX634171 XfmrCode=4221453 Wdg=1 Bus=XFR273123.1.0 Tap=1.0 Conn=wye Wdg=2 Bus=XFR273123_EXTNODE.1.0 Tap=1.0 Conn=wye core=shell Basefreq=60
New Transformer.TX511587 XfmrCode=4221453 Wdg=1 Bus=XFR164725.2.0 Tap=1.0 Conn=wye Wdg=2 Bus=XFR164725_EXTNODE.2.0 Tap=1.0 Conn=wye core=shell Basefreq=60
New Transformer.TX666429 XfmrCode=4221452 Wdg=1 Bus=XFR273163.1.0 Tap=1.0 Conn=wye Wdg=2 Bus=XFR273163_EXTNODE.1.0 Tap=1.0 Conn=wye core=shell Basefreq=60
New Transformer.TX667696 XfmrCode=4221453 Wdg=1 Bus=XFR273385.2.0 Tap=1.0 Conn=wye Wdg=2 Bus=XFR273385_EXTNODE.2.0 Tap=1.0 Conn=wye core=shell Basefreq=60
New Transformer.TX666441 XfmrCode=4221452 Wdg=1 Bus=XFR211659.3.0 Tap=1.0 Conn=wye Wdg=2 Bus=XFR211659_EXTNODE.3.0 Tap=1.0 Conn=wye core=shell Basefreq=60
New Transformer.TX639588 XfmrCode=4221453 Wdg=1 Bus=XFR273155.1.0 Tap=1.0 Conn=wye Wdg=2 Bus=XFR273155_EXTNODE.1.0 Tap=1.0 Conn=wye core=shell Basefreq=60
New Transformer.TX793103 XfmrCode=4221453 Wdg=1 Bus=XFR1179990.1.0 Tap=1.0 Conn=wye Wdg=2 Bus=XFR1179990_EXTNODE.1.0 Tap=1.0 Conn=wye core=shell Basefreq=60
New Transformer.TX608938 XfmrCode=4221452 Wdg=1 Bus=XFR177417.1.0 Tap=1.0 Conn=wye Wdg=2 Bus=XFR177417_EXTNODE.1.0 Tap=1.0 Conn=wye core=shell Basefreq=60
New Transformer.TX793100 XfmrCode=4221453 Wdg=1 Bus=XFR1179987.1.0 Tap=1.0 Conn=wye Wdg=2 Bus=XFR1179987_EXTNODE.1.0 Tap=1.0 Conn=wye core=shell Basefreq=60
New Transformer.TX634167 XfmrCode=4221453 Wdg=1 Bus=XFR273129.1.0 Tap=1.0 Conn=wye Wdg=2 Bus=XFR273129_EXTNODE.1.0 Tap=1.0 Conn=wye core=shell Basefreq=60
New Transformer.TX779691 XfmrCode=4221451 Wdg=1 Bus=XFR905387.1.0 Tap=1.0 Conn=wye Wdg=2 Bus=XFR905387_EXTNODE.1.0 Tap=1.0 Conn=wye core=shell Basefreq=60
New Transformer.TX793117 XfmrCode=4221453 Wdg=1 Bus=XFR1179971.3.0 Tap=1.0 Conn=wye Wdg=2 Bus=XFR1179971_EXTNODE.3.0 Tap=1.0 Conn=wye core=shell Basefreq=60
New Transformer.TX526572 XfmrCode=4221453 Wdg=1 Bus=XFR158252.2.0 Tap=1.0 Conn=wye Wdg=2 Bus=XFR158252_EXTNODE.2.0 Tap=1.0 Conn=wye core=shell Basefreq=60
New Transformer.TX705507 XfmrCode=4221453 Wdg=1 Bus=XFR219111.3.0 Tap=1.0 Conn=wye Wdg=2 Bus=XFR219111_EXTNODE.3.0 Tap=1.0 Conn=wye core=shell Basefreq=60
New Transformer.TX634163 XfmrCode=4221452 Wdg=1 Bus=XFR273140.3.0 Tap=1.0 Conn=wye Wdg=2 Bus=XFR273140_EXTNODE.3.0 Tap=1.0 Conn=wye core=shell Basefreq=60
New Transformer.TX526568 XfmrCode=4221453 Wdg=1 Bus=XFR162062.2.0 Tap=1.0 Conn=wye Wdg=2 Bus=XFR162062_EXTNODE.2.0 Tap=1.0 Conn=wye core=shell Basefreq=60
New Transformer.TX793108 XfmrCode=4221452 Wdg=1 Bus=XFR1179983.2.0 Tap=1.0 Conn=wye Wdg=2 Bus=XFR1179983_EXTNODE.2.0 Tap=1.0 Conn=wye core=shell Basefreq=60
New Transformer.TX667180 XfmrCode=4221452 Wdg=1 Bus=XFR273406.3.0 Tap=1.0 Conn=wye Wdg=2 Bus=XFR273406_EXTNODE.3.0 Tap=1.0 Conn=wye core=shell Basefreq=60
New Transformer.TX634172 XfmrCode=4221453 Wdg=1 Bus=XFR273124.1.0 Tap=1.0 Conn=wye Wdg=2 Bus=XFR273124_EXTNODE.1.0 Tap=1.0 Conn=wye core=shell Basefreq=60
New Transformer.TX634176 XfmrCode=4221453 Wdg=1 Bus=XFR273135.2.0 Tap=1.0 Conn=wye Wdg=2 Bus=XFR273135_EXTNODE.2.0 Tap=1.0 Conn=wye core=shell Basefreq=60
New Transformer.TX666433 XfmrCode=4221453 Wdg=1 Bus=XFR273166.2.0 Tap=1.0 Conn=wye Wdg=2 Bus=XFR273166_EXTNODE.2.0 Tap=1.0 Conn=wye core=shell Basefreq=60
New Transformer.TX526574 XfmrCode=4221453 Wdg=1 Bus=XFR162064.1.0 Tap=1.0 Conn=wye Wdg=2 Bus=XFR162064_EXTNODE.1.0 Tap=1.0 Conn=wye core=shell Basefreq=60
New Transformer.TX667174 XfmrCode=4221453 Wdg=1 Bus=XFR273414.2.0 Tap=1.0 Conn=wye Wdg=2 Bus=XFR273414_EXTNODE.2.0 Tap=1.0 Conn=wye core=shell Basefreq=60
New Transformer.TX634181 XfmrCode=4221453 Wdg=1 Bus=XFR273130.2.0 Tap=1.0 Conn=wye Wdg=2 Bus=XFR273130_EXTNODE.2.0 Tap=1.0 Conn=wye core=shell Basefreq=60
New Transformer.TX608931 XfmrCode=4221453 Wdg=1 Bus=XFR173392.1.0 Tap=1.0 Conn=wye Wdg=2 Bus=XFR173392_EXTNODE.1.0 Tap=1.0 Conn=wye core=shell Basefreq=60
New Transformer.TX678404 XfmrCode=4221453 Wdg=1 Bus=XFR211665.2.0 Tap=1.0 Conn=wye Wdg=2 Bus=XFR211665_EXTNODE.2.0 Tap=1.0 Conn=wye core=shell Basefreq=60
New Transformer.TX639583 XfmrCode=4221453 Wdg=1 Bus=XFR273150.2.0 Tap=1.0 Conn=wye Wdg=2 Bus=XFR273150_EXTNODE.2.0 Tap=1.0 Conn=wye core=shell Basefreq=60
New Transformer.TX709956 XfmrCode=4221452 Wdg=1 Bus=XFR335430.2.0 Tap=1.0 Conn=wye Wdg=2 Bus=XFR335430_EXTNODE.2.0 Tap=1.0 Conn=wye core=shell Basefreq=60
New Transformer.TX780871 XfmrCode=4221452 Wdg=1 Bus=XFR962345.3.0 Tap=1.0 Conn=wye Wdg=2 Bus=XFR962345_EXTNODE.3.0 Tap=1.0 Conn=wye core=shell Basefreq=60
New Transformer.TX779690 XfmrCode=4221451 Wdg=1 Bus=XFR864417.2.0 Tap=1.0 Conn=wye Wdg=2 Bus=XFR864417_EXTNODE.2.0 Tap=1.0 Conn=wye core=shell Basefreq=60
New Transformer.TX608944 XfmrCode=4221453 Wdg=1 Bus=XFR256628.1.0 Tap=1.0 Conn=wye Wdg=2 Bus=XFR256628_EXTNODE.1.0 Tap=1.0 Conn=wye core=shell Basefreq=60
New Transformer.TX705486 XfmrCode=4221452 Wdg=1 Bus=XFR183812.2.0 Tap=1.0 Conn=wye Wdg=2 Bus=XFR183812_EXTNODE.2.0 Tap=1.0 Conn=wye core=shell Basefreq=60
New Transformer.TX608949 XfmrCode=4221453 Wdg=1 Bus=XFR213254.2.0 Tap=1.0 Conn=wye Wdg=2 Bus=XFR213254_EXTNODE.2.0 Tap=1.0 Conn=wye core=shell Basefreq=60