New Loadshape.Va Npts=24 Interval=1 Mult=(1.02961860644299,1.02939493243258,1.02925286099525,1.02771447286963,1.02543465496933,1.02196416723269,1.02460861237398,1.02692486876005,1.02998411115594,1.03019103033221,1.03184957732819,1.03088249844642,1.0301613471538,1.03841849491163,1.02194426971718,1.01816236344468,1.01727806742374,1.01619298764771,1.01382636823026,1.01466949391486,1.01439178908176,1.01828276806178,1.01973310419169,1.03194374173318)

New Loadshape.Vb Npts=24 Interval=1 Mult=(1.03282058835311,1.03283988463961,1.03238931877472,1.03025850514631,1.02606691450723,1.02463821798793,1.02760517716929,1.03181545257072,1.03453669803137,1.03475524335761,1.0362964047765,1.03484137812271,1.03412664142405,1.04115607800188,1.02194426995278,1.02332985374314,1.02070754763753,1.01879693498131,1.01809523115815,1.01863214422452,1.01879107933227,1.02274232383582,1.0242432464916,1.03496707726617)

New Loadshape.Vc Npts=24 Interval=1 Mult=(1.03362270875072,1.03385621242173,1.03359615755069,1.03120775346668,1.02646724178766,1.02520069327586,1.02885875606669,1.0358305541007,1.03752539998787,1.03803328042729,1.0379661396096,1.0370804250356,1.03622153459555,1.04091533633458,1.02194426997627,1.02444051238926,1.0212047947538,1.01790466534035,1.01841371137703,1.02038578119774,1.01947478730806,1.02354932634097,1.02533778018651,1.03563201350639)
